@<TRIPOS>MOLECULE
*****
 134 142 0 0 0
SMALL
GASTEIGER

@<TRIPOS>ATOM
      1 C          14.6230   -1.8761   -6.2331 C.3     1  UNL1       -0.0452
      2 C          13.7538   -1.9323   -4.9132 C.3     1  UNL1        0.0361
      3 C          13.4701   -3.4249   -4.4587 C.3     1  UNL1        0.0173
      4 N          14.5689   -4.3955   -4.1082 N.3     1  UNL1       -0.3005
      5 C          14.8548   -4.3108   -2.6649 C.3     1  UNL1        0.0004
      6 C          14.7495   -2.8997   -1.9396 C.3     1  UNL1       -0.0243
      7 C          15.0854   -1.5310   -2.6294 C.3     1  UNL1        0.0164
      8 N          14.1840   -1.1533   -3.7075 N.pl3   1  UNL1       -0.2956
      9 C          13.8108    0.1285   -3.4962 C.ar    1  UNL1        0.2187
     10 N          14.7675    1.0772   -3.4210 N.ar    1  UNL1       -0.2227
     11 C          14.4150    2.2648   -2.9256 C.ar    1  UNL1        0.0333
     12 C          13.1583    2.5038   -2.4574 C.ar    1  UNL1       -0.0142
     13 C          12.3046    1.4235   -2.4804 C.ar    1  UNL1        0.1162
     14 N          12.5907    0.2423   -3.0132 N.ar    1  UNL1       -0.2111
     15 C          10.9600    1.5621   -2.0176 C.ar    1  UNL1        0.2206
     16 N          10.3957    0.8747   -1.0129 N.ar    1  UNL1       -0.0544
     17 O           9.1010    1.3985   -0.9734 O.2     1  UNL1       -0.3367
     18 C           9.0321    2.3146   -1.9902 C.ar    1  UNL1        0.2380
     19 N          10.1606    2.4810   -2.6214 N.ar    1  UNL1       -0.1893
     20 C           7.7273    2.9970   -2.2688 C.3     1  UNL1        0.0736
     21 C           7.3038    3.7879   -0.9592 C.3     1  UNL1       -0.0347
     22 C           8.2165    4.9906   -0.6928 C.3     1  UNL1       -0.0473
     23 C           8.0437    6.0076   -1.7984 C.3     1  UNL1       -0.0210
     24 C           8.1185    5.3728   -3.1347 C.ar    1  UNL1       -0.0030
     25 C           7.9373    4.0373   -3.4607 C.ar    1  UNL1       -0.0031
     26 C           8.1475    3.8989   -4.9302 C.ar    1  UNL1        0.0840
     27 C           8.4196    5.1279   -5.5474 C.ar    1  UNL1        0.0810
     28 S           8.4540    6.3962   -4.4186 S.2     1  UNL1       -0.0774
     29 N           8.6674    5.5733   -6.7999 N.pl3   1  UNL1       -0.3516
     30 C           8.0951    2.6486   -5.6823 C.1     1  UNL1        0.1019
     31 N           8.0203    1.6722   -6.2633 N.1     1  UNL1       -0.1908
     32 C           6.6820    1.8956   -2.5169 C.3     1  UNL1       -0.0469
     33 C          15.8356   -4.2576   -4.8821 C.3     1  UNL1       -0.0009
     34 C          16.5420   -3.0214   -4.3846 C.3     1  UNL1       -0.0371
     35 C          17.3915   -2.9119   -3.1509 C.3     1  UNL1       -0.0174
     36 C          18.5257   -3.8037   -3.3343 C.3     1  UNL1        0.0913
     37 O          19.4015   -3.2250   -4.3187 O.3     1  UNL1       -0.4743
     38 C          18.8843   -3.0399   -5.5780 C.ar    1  UNL1        0.2541
     39 C          19.5100   -3.5240   -6.6616 C.ar    1  UNL1        0.0895
     40 N          18.6879   -3.3043   -7.7515 N.ar    1  UNL1       -0.2358
     41 N          17.7549   -2.4408   -7.3531 N.ar    1  UNL1       -0.0614
     42 N          18.1671   -2.0301   -6.1604 N.ar    1  UNL1       -0.0917
     43 C          18.7380   -3.5693   -9.2025 C.3     1  UNL1        0.1326
     44 C          19.8977   -2.8298   -9.9301 C.3     1  UNL1       -0.0157
     45 C          21.2278   -3.2892   -9.3853 C.3     1  UNL1       -0.0603
     46 C          19.9274   -3.0664  -11.4471 C.3     1  UNL1       -0.0603
     47 C          18.6314   -5.0552   -9.6057 C.2     1  UNL1        0.2412
     48 O          17.8252   -5.3966  -10.4760 O.2     1  UNL1       -0.2732
     49 N          19.5353   -5.9671   -9.0849 N.am    1  UNL1       -0.2856
     50 C          20.1299   -5.8725   -7.7962 C.3     1  UNL1        0.0416
     51 C          21.3502   -6.7350   -7.7121 C.3     1  UNL1        0.0731
     52 C          21.0286   -7.7879   -8.7399 C.3     1  UNL1        0.0018
     53 C          20.1933   -7.0426   -9.8204 C.3     1  UNL1        0.1047
     54 C          19.1613   -7.9192  -10.5031 C.2     1  UNL1        0.2342
     55 O          19.2734   -8.2049  -11.6956 O.2     1  UNL1       -0.2738
     56 N          18.1298   -8.4308   -9.7673 N.am    1  UNL1       -0.3047
     57 CA         17.8399   -8.2575   -8.3371 C.3     1  UNL1        0.0714
     58 C          16.5236   -7.5257   -8.0722 C.3     1  UNL1        0.0667
     59 O          15.4154   -8.2770   -8.5455 O.3     1  UNL1       -0.3928
     60 C          17.9813   -9.5591   -7.5944 C.ar    1  UNL1       -0.0250
     61 C          18.8056   -9.6830   -6.4603 C.ar    1  UNL1       -0.0561
     62 C          19.0275  -10.9358   -5.8865 C.ar    1  UNL1       -0.0532
     63 C          18.3027  -12.0412   -6.3318 C.ar    1  UNL1       -0.0095
     64 C          17.4927  -11.9074   -7.4712 C.ar    1  UNL1       -0.0532
     65 C          17.3303  -10.6814   -8.0906 C.ar    1  UNL1       -0.0561
     66 C          18.4313  -13.3468   -5.6925 C.ar    1  UNL1        0.0417
     67 C          18.1170  -13.8535   -4.4270 C.ar    1  UNL1        0.0531
     68 N          18.3604  -15.2296   -4.3074 N.ar    1  UNL1       -0.2520
     69 C          18.8510  -15.7056   -5.4303 C.ar    1  UNL1        0.0655
     70 S          19.0982  -14.5902   -6.6854 S.2     1  UNL1       -0.0752
     71 C          17.5373  -13.1543   -3.2210 C.3     1  UNL1       -0.0212
     72 O          22.5125   -5.9852   -8.0672 O.3     1  UNL1       -0.3902
     73 H          14.5455   -2.8253   -6.7845 H       1  UNL1        0.0248
     74 H          15.6752   -1.6614   -6.1165 H       1  UNL1        0.0248
     75 H          14.3720   -1.0913   -6.9447 H       1  UNL1        0.0248
     76 H          12.8057   -1.5059   -5.2539 H       1  UNL1        0.0510
     77 H          12.8048   -3.3586   -3.5838 H       1  UNL1        0.0445
     78 H          12.8464   -3.8965   -5.2231 H       1  UNL1        0.0445
     79 H          14.1925   -5.0094   -2.1398 H       1  UNL1        0.0427
     80 H          15.8233   -4.8119   -2.4918 H       1  UNL1        0.0427
     81 H          13.7396   -2.8048   -1.5387 H       1  UNL1        0.0293
     82 H          15.3891   -2.9764   -1.0441 H       1  UNL1        0.0293
     83 H          15.3237   -0.8145   -1.8228 H       1  UNL1        0.0465
     84 H          16.0307   -1.2966   -3.0973 H       1  UNL1        0.0465
     85 H          15.1886    3.0242   -2.9163 H       1  UNL1        0.0831
     86 H          12.8470    3.4724   -2.1019 H       1  UNL1        0.0655
     87 H           7.3054    3.1470   -0.0675 H       1  UNL1        0.0278
     88 H           6.2745    4.1611   -1.0672 H       1  UNL1        0.0278
     89 H           7.9744    5.4772    0.2577 H       1  UNL1        0.0269
     90 H           9.2635    4.6699   -0.6321 H       1  UNL1        0.0269
     91 H           7.0613    6.4862   -1.7187 H       1  UNL1        0.0318
     92 H           8.8140    6.7793   -1.7005 H       1  UNL1        0.0318
     93 H           8.7164    5.0574   -7.6686 H       1  UNL1        0.1428
     94 H           8.8388    6.5772   -6.8981 H       1  UNL1        0.1428
     95 H           5.6889    2.1787   -2.1541 H       1  UNL1        0.0243
     96 H           6.6039    1.6353   -3.5713 H       1  UNL1        0.0243
     97 H           6.9338    0.9651   -1.9837 H       1  UNL1        0.0243
     98 H          16.4933   -5.1248   -4.7907 H       1  UNL1        0.0427
     99 H          15.6221   -4.2602   -5.9575 H       1  UNL1        0.0427
    100 H          16.8745   -2.1892   -4.9431 H       1  UNL1        0.0279
    101 H          15.6803   -2.4640   -4.3132 H       1  UNL1        0.0279
    102 H          17.7608   -1.8842   -2.9873 H       1  UNL1        0.0298
    103 H          16.9040   -3.1879   -2.2382 H       1  UNL1        0.0298
    104 H          18.9587   -3.8223   -2.3225 H       1  UNL1        0.0697
    105 H          18.1495   -4.8136   -3.5401 H       1  UNL1        0.0697
    106 H          20.5076   -3.8977   -6.5591 H       1  UNL1        0.0881
    107 H          17.8125   -3.1156   -9.6106 H       1  UNL1        0.0644
    108 H          19.8058   -1.7515   -9.7501 H       1  UNL1        0.0321
    109 H          21.3035   -4.3431   -9.6249 H       1  UNL1        0.0233
    110 H          22.1034   -2.8201   -9.8172 H       1  UNL1        0.0233
    111 H          21.2892   -3.1154   -8.3146 H       1  UNL1        0.0233
    112 H          19.0641   -2.6220  -11.9481 H       1  UNL1        0.0233
    113 H          20.8346   -2.6231  -11.8755 H       1  UNL1        0.0233
    114 H          19.9571   -4.1338  -11.6947 H       1  UNL1        0.0233
    115 H          19.3710   -6.0246   -7.0197 H       1  UNL1        0.0490
    116 H          20.5464   -4.9155   -7.8371 H       1  UNL1        0.0490
    117 H          21.5034   -7.0729   -6.6850 H       1  UNL1        0.0610
    118 H          21.9219   -8.2664   -9.1339 H       1  UNL1        0.0313
    119 H          20.4443   -8.5558   -8.2401 H       1  UNL1        0.0313
    120 H          20.8591   -6.5819  -10.5598 H       1  UNL1        0.0597
    121 H          17.5120   -9.0001  -10.3267 H       1  UNL1        0.1494
    122 HA         18.5880   -7.6301   -7.8986 H       1  UNL1        0.0571
    123 H1         16.4088   -7.3465   -6.9974 H       1  UNL1        0.0579
    124 H2         16.5074   -6.5529   -8.5711 H       1  UNL1        0.0579
    125 H          15.5793   -8.4277   -9.4917 H       1  UNL1        0.2095
    126 H          19.3014   -8.8165   -6.0261 H       1  UNL1        0.0621
    127 H          19.7973  -11.0520   -5.1271 H       1  UNL1        0.0624
    128 H          16.9980  -12.7633   -7.9219 H       1  UNL1        0.0624
    129 H          16.6847  -10.5998   -8.9598 H       1  UNL1        0.0621
    130 H          19.1073  -16.7423   -5.5958 H       1  UNL1        0.0907
    131 H          16.5647  -13.5756   -2.9315 H       1  UNL1        0.0293
    132 H          18.1899  -13.2576   -2.3426 H       1  UNL1        0.0293
    133 H          17.3903  -12.0837   -3.3886 H       1  UNL1        0.0293
    134 H          22.4154   -5.6348   -8.9677 H       1  UNL1        0.2098
@<TRIPOS>BOND
     1     2     3    1
     2     3     4    1
     3     4     5    1
     4     5     6    1
     5     6     7    1
     6     7     8    1
     7     2     8    1
     8     8     9    1
     9     9    10   ar
    10    10    11   ar
    11    11    12   ar
    12    12    13   ar
    13    13    14   ar
    14     9    14   ar
    15    13    15    1
    16    15    16   ar
    17    16    17   ar
    18    17    18   ar
    19    18    19   ar
    20    15    19   ar
    21    20    21    1
    22    21    22    1
    23    22    23    1
    24    23    24    1
    25    24    25   ar
    26    20    25    1
    27    25    26   ar
    28    26    27   ar
    29    27    28   ar
    30    24    28   ar
    31    27    29    1
    32    26    30    1
    33    30    31    3
    34     4    33    1
    35    33    34    1
    36    34    35    1
    37    35    36    1
    38    36    37    1
    39    37    38    1
    40    38    39   ar
    41    39    40   ar
    42    40    41   ar
    43    41    42   ar
    44    38    42   ar
    45    40    43    1
    46    43    44    1
    47    44    45    1
    48    44    46    1
    49    43    47    1
    50    47    48    2
    51    47    49   am
    52    49    50    1
    53    50    51    1
    54    51    52    1
    55    52    53    1
    56    49    53    1
    57    53    54    1
    58    54    55    2
    59    54    56   am
    60    56    57    1
    61    57    58    1
    62    58    59    1
    63    57    60    1
    64    60    61   ar
    65    61    62   ar
    66    62    63   ar
    67    63    64   ar
    68    64    65   ar
    69    60    65   ar
    70    63    66    1
    71    66    67   ar
    72    67    68   ar
    73    68    69   ar
    74    69    70   ar
    75    66    70   ar
    76    67    71    1
    77    51    72    1
    78     1    73    1
    79     1    74    1
    80     1    75    1
    81     3    77    1
    82     3    78    1
    83     5    79    1
    84     5    80    1
    85     6    81    1
    86     6    82    1
    87     7    83    1
    88     7    84    1
    89    11    85    1
    90    12    86    1
    91    21    87    1
    92    21    88    1
    93    22    89    1
    94    22    90    1
    95    23    91    1
    96    23    92    1
    97    29    93    1
    98    29    94    1
    99    32    95    1
   100    32    96    1
   101    32    97    1
   102    33    98    1
   103    33    99    1
   104    34   100    1
   105    34   101    1
   106    35   102    1
   107    35   103    1
   108    36   104    1
   109    36   105    1
   110    39   106    1
   111    43   107    1
   112    44   108    1
   113    45   109    1
   114    45   110    1
   115    45   111    1
   116    46   112    1
   117    46   113    1
   118    46   114    1
   119    50   115    1
   120    50   116    1
   121    51   117    1
   122    52   118    1
   123    52   119    1
   124    53   120    1
   125    56   121    1
   126    57   122    1
   127    58   123    1
   128    58   124    1
   129    59   125    1
   130    61   126    1
   131    62   127    1
   132    64   128    1
   133    65   129    1
   134    69   130    1
   135    71   131    1
   136    71   132    1
   137    71   133    1
   138    72   134    1
   139     2    76    1
   140     2     1    1
   141    20    32    1
   142    20    18    1
