@<TRIPOS>MOLECULE
*****
 36 40 0 0 0
SMALL
GASTEIGER

@<TRIPOS>ATOM
      1 C           0.6324  -16.8451  -26.7391 C.3     1  UNL1        0.0379
      2 C           0.8548  -15.6765  -27.6687 C.ar    1  UNL1        0.0051
      3 C           2.0588  -15.2722  -28.2315 C.ar    1  UNL1       -0.0165
      4 C           3.3430  -16.0063  -28.0013 C.3     1  UNL1        0.0313
      5 C           1.9300  -14.0692  -29.0663 C.ar    1  UNL1        0.0359
      6 C           0.6107  -13.6477  -29.0605 C.ar    1  UNL1        0.0970
      7 S          -0.4252  -14.6529  -28.1607 S.2     1  UNL1       -0.0740
      8 N           0.1296  -12.4924  -29.6964 N.ar    1  UNL1       -0.2736
      9 C          -1.1199  -12.1588  -30.2104 C.ar    1  UNL1        0.1477
     10 C          -2.2738  -13.0667  -30.3991 C.3     1  UNL1        0.0742
     11 N          -1.0995  -10.9205  -30.6584 N.ar    1  UNL1       -0.1332
     12 N           0.1555  -10.4273  -30.4994 N.ar    1  UNL1       -0.1313
     13 C           0.9034  -11.3676  -29.9636 C.ar    1  UNL1        0.1701
     14 C           2.3433  -11.2490  -29.5923 C.3     1  UNL1        0.1707
     15 N           3.1419  -12.2400  -30.2892 N.2     1  UNL1       -0.2641
     16 C           2.9933  -13.4742  -29.9274 C.2     1  UNL1        0.0780
     17 C           3.9535  -14.3993  -30.5144 C.ar    1  UNL1        0.0174
     18 C           3.4666  -15.3484  -31.4089 C.ar    1  UNL1        0.0023
     19 C           4.3703  -16.1942  -32.0279 C.ar    1  UNL1        0.0114
     20 C           5.7341  -16.0788  -31.7422 C.ar    1  UNL1        0.0577
     21 CL          6.8440  -17.1182  -32.5411 Cl      1  UNL1       -0.0822
     22 C           6.2089  -15.1339  -30.8265 C.ar    1  UNL1        0.0114
     23 C           5.3111  -14.2785  -30.2012 C.ar    1  UNL1        0.0023
     24 C           2.8588   -9.8203  -29.7098 C.3     1  UNL1        0.1174
     25 C           3.8173   -9.6135  -30.8863 C.2     1  UNL1        0.2285
     26 O           3.3735   -9.4692  -32.0205 O.2     1  UNL1       -0.2747
     27 N           5.1852   -9.4603  -30.6950 N.am    1  UNL1       -0.2838
     28 H           5.6165   -9.0397  -31.5131 H       1  UNL1        0.1549
     29 C           5.9463   -9.5101  -29.5059 C.ar    1  UNL1        0.0505
     30 C           6.0457   -8.4225  -28.6449 C.ar    1  UNL1        0.0178
     31 C           6.9277   -8.3485  -27.5824 C.ar    1  UNL1        0.0379
     32 C           7.5496   -9.5031  -27.1919 C.ar    1  UNL1        0.1338
     33 O           8.3016   -9.5070  -26.0592 O.3     1  UNL1       -0.5055
     34 C           7.3297  -10.6827  -27.9000 C.ar    1  UNL1        0.0379
     35 C           6.5358  -10.6895  -29.0675 C.ar    1  UNL1        0.0178
     36 H           8.3027   -8.6024  -25.6972 H       1  UNL1        0.2922
@<TRIPOS>BOND
     1     1     2    1
     2     2     3   ar
     3     3     4    1
     4     3     5   ar
     5     5     6   ar
     6     6     7   ar
     7     2     7   ar
     8     6     8    1
     9     8     9   ar
    10     9    10    1
    11     9    11   ar
    12    11    12   ar
    13    12    13   ar
    14     8    13   ar
    15    13    14    1
    16    24    25    1
    17    25    26    2
    18    25    27   am
    19    27    29    1
    20    29    30   ar
    21    30    31   ar
    22    31    32   ar
    23    32    33    1
    24    32    34   ar
    25    34    35   ar
    26    29    35   ar
    27    14    15    1
    28    15    16    2
    29     5    16    1
    30    16    17    1
    31    17    18   ar
    32    18    19   ar
    33    19    20   ar
    34    20    21    1
    35    20    22   ar
    36    22    23   ar
    37    17    23   ar
    38    27    28    1
    39    33    36    1
    40    14    24    1
