@<TRIPOS>MOLECULE
*****
 56 59 0 0 0
SMALL
GASTEIGER

@<TRIPOS>ATOM
      1 C           0.9991    0.0186   -0.0509 C.3     1  UNL1       -0.0585
      2 C           0.4890   -0.7801    1.1476 C.3     1  UNL1       -0.0165
      3 C           0.9670   -0.1726    2.4638 C.3     1  UNL1       -0.0585
      4 C          -0.9874   -0.8145    1.1354 C.ar    1  UNL1        0.0193
      5 C          -1.8173   -1.8690    1.4444 C.ar    1  UNL1        0.1677
      6 N          -1.6427   -3.1694    1.8403 N.ar    1  UNL1       -0.1753
      7 C          -2.7199   -3.8083    2.1759 C.ar    1  UNL1        0.3231
      8 O          -2.6527   -5.1167    2.5630 O.3     1  UNL1       -0.4590
      9 C          -3.6948   -6.1564    2.4961 C.3     1  UNL1        0.1057
     10 C          -4.4690   -6.2027    1.1778 C.3     1  UNL1       -0.0028
     11 C          -5.6392   -5.2146    1.1298 C.3     1  UNL1        0.0019
     12 N          -6.4791   -5.2138    2.3418 N.3     1  UNL1       -0.3051
     13 C          -7.4262   -4.1003    2.3701 C.3     1  UNL1       -0.0128
     14 C          -5.7260   -5.1761    3.6099 C.3     1  UNL1        0.0019
     15 C          -4.6625   -6.2491    3.6747 C.3     1  UNL1       -0.0028
     16 N          -3.9796   -3.2669    2.1645 N.ar    1  UNL1       -0.1612
     17 C          -4.1835   -2.0769    1.6818 C.ar    1  UNL1        0.2229
     18 N          -5.4649   -1.6069    1.4994 N.pl3   1  UNL1       -0.3092
     19 C          -5.9631   -0.3302    1.0581 C.3     1  UNL1        0.0370
     20 C          -6.7551   -0.4012   -0.2302 C.ar    1  UNL1       -0.0303
     21 C          -7.1502   -1.5961   -0.8497 C.ar    1  UNL1       -0.0571
     22 C          -7.8932   -1.5774   -2.0301 C.ar    1  UNL1       -0.0615
     23 C          -8.2482   -0.3649   -2.6128 C.ar    1  UNL1       -0.0617
     24 C          -7.8633    0.8322   -2.0158 C.ar    1  UNL1       -0.0615
     25 C          -7.1270    0.8143   -0.8317 C.ar    1  UNL1       -0.0571
     26 N          -3.0706   -1.3371    1.3308 N.ar    1  UNL1       -0.1830
     27 N          -3.1166   -0.0599    0.9297 N.ar    1  UNL1       -0.1702
     28 C          -1.8426    0.2774    0.8571 C.ar    1  UNL1        0.0554
     29 H           0.6627    1.0621   -0.0102 H       1  UNL1        0.0235
     30 H           0.6172   -0.4066   -0.9874 H       1  UNL1        0.0235
     31 H           2.0892    0.0180   -0.0822 H       1  UNL1        0.0235
     32 H           0.8659   -1.8068    1.0693 H       1  UNL1        0.0345
     33 H           0.6025    0.8553    2.5833 H       1  UNL1        0.0235
     34 H           0.5913   -0.7483    3.3187 H       1  UNL1        0.0235
     35 H           2.0577   -0.1603    2.5072 H       1  UNL1        0.0235
     36 H          -3.1048   -7.0834    2.5469 H       1  UNL1        0.0735
     37 H          -4.8896   -7.2091    1.0475 H       1  UNL1        0.0313
     38 H          -3.7822   -6.0266    0.3423 H       1  UNL1        0.0313
     39 H          -6.2471   -5.4312    0.2443 H       1  UNL1        0.0428
     40 H          -5.2617   -4.2355    0.8706 H       1  UNL1        0.0428
     41 H          -8.2430   -4.2942    3.0682 H       1  UNL1        0.0391
     42 H          -6.9588   -3.1893    2.7516 H       1  UNL1        0.0391
     43 H          -7.8590   -3.9018    1.3852 H       1  UNL1        0.0391
     44 H          -5.2638   -4.2055    3.8105 H       1  UNL1        0.0428
     45 H          -6.4303   -5.3288    4.4372 H       1  UNL1        0.0428
     46 H          -5.1791   -7.2209    3.6356 H       1  UNL1        0.0313
     47 H          -4.1398   -6.2078    4.6354 H       1  UNL1        0.0313
     48 H          -6.1456   -2.3371    1.4362 H       1  UNL1        0.1492
     49 H          -6.6219    0.0471    1.8480 H       1  UNL1        0.0512
     50 H          -5.2019    0.4316    0.9296 H       1  UNL1        0.0512
     51 H          -6.8803   -2.5666   -0.4479 H       1  UNL1        0.0621
     52 H          -8.1851   -2.5148   -2.4964 H       1  UNL1        0.0618
     53 H          -8.8188   -0.3552   -3.5367 H       1  UNL1        0.0618
     54 H          -8.1305    1.7804   -2.4742 H       1  UNL1        0.0618
     55 H          -6.8266    1.7602   -0.3825 H       1  UNL1        0.0621
     56 H          -1.5986    1.3010    0.6065 H       1  UNL1        0.0851
@<TRIPOS>BOND
     1     1     2    1
     2     2     3    1
     3     2     4    1
     4     4     5   ar
     5     5     6   ar
     6     6     7   ar
     7     7     8    1
     8     8     9    1
     9     9    10    1
    10    10    11    1
    11    11    12    1
    12    12    13    1
    13    12    14    1
    14    14    15    1
    15     9    15    1
    16     7    16   ar
    17    16    17   ar
    18    17    18    1
    19    18    19    1
    20    19    20    1
    21    20    21   ar
    22    21    22   ar
    23    22    23   ar
    24    23    24   ar
    25    24    25   ar
    26    20    25   ar
    27    17    26   ar
    28     5    26   ar
    29    26    27   ar
    30    27    28   ar
    31     4    28   ar
    32     1    29    1
    33     1    30    1
    34     1    31    1
    35     2    32    1
    36     3    33    1
    37     3    34    1
    38     3    35    1
    39     9    36    1
    40    10    37    1
    41    10    38    1
    42    11    39    1
    43    11    40    1
    44    13    41    1
    45    13    42    1
    46    13    43    1
    47    14    44    1
    48    14    45    1
    49    15    46    1
    50    15    47    1
    51    18    48    1
    52    19    49    1
    53    19    50    1
    54    21    51    1
    55    22    52    1
    56    23    53    1
    57    24    54    1
    58    25    55    1
    59    28    56    1
