@<TRIPOS>MOLECULE
*****
 58 61 0 0 0
SMALL
GASTEIGER

@<TRIPOS>ATOM
      1 C           1.2465   -0.1333   -0.0007 C.3     1  UNL1       -0.0585
      2 C           0.7739    0.6262   -1.2183 C.3     1  UNL1       -0.0165
      3 C           1.1856    0.0897   -2.5627 C.3     1  UNL1       -0.0585
      4 C          -0.6615    0.6103   -1.1246 C.ar    1  UNL1        0.0193
      5 C          -1.3667    1.7631   -1.2269 C.ar    1  UNL1        0.1677
      6 N          -1.0242    3.0116   -1.7319 N.ar    1  UNL1       -0.1753
      7 C          -2.1109    3.7362   -1.9202 C.ar    1  UNL1        0.3231
      8 O          -2.2006    5.0429   -2.4466 O.3     1  UNL1       -0.4590
      9 C          -3.4659    5.9788   -2.5141 C.3     1  UNL1        0.1057
     10 C          -4.2097    6.0349   -1.1916 C.3     1  UNL1       -0.0028
     11 C          -4.6981    4.6175   -0.9300 C.3     1  UNL1        0.0019
     12 N          -5.3063    3.6608   -2.3321 N.3     1  UNL1       -0.3051
     13 C          -4.8942    2.1044   -2.9352 C.3     1  UNL1       -0.0128
     14 C          -4.7426    4.2099   -3.5872 C.3     1  UNL1        0.0019
     15 C          -4.5074    5.6528   -3.5871 C.3     1  UNL1       -0.0028
     16 N          -3.2330    3.1954   -1.5356 N.ar    1  UNL1       -0.1612
     17 C          -3.6218    2.1635   -0.8022 C.ar    1  UNL1        0.2229
     18 N          -5.0068    1.8462   -0.4599 N.pl3   1  UNL1       -0.3091
     19 C          -5.7410    0.5385   -0.7285 C.3     1  UNL1        0.0388
     20 C          -6.7095    0.3077    0.3694 C.ar    1  UNL1       -0.0097
     21 C          -6.9817   -0.9847    0.8302 C.ar    1  UNL1        0.0293
     22 N          -6.6934   -2.1374    0.0926 N.pl3   1  UNL1       -0.3577
     23 C          -7.7348   -1.0615    1.9958 C.ar    1  UNL1       -0.0407
     24 C          -8.1585    0.0971    2.6767 C.ar    1  UNL1       -0.0600
     25 C          -7.9165    1.3628    2.1695 C.ar    1  UNL1       -0.0613
     26 C          -7.2422    1.4590    0.9840 C.ar    1  UNL1       -0.0553
     27 N          -2.5721    1.3524   -0.6883 N.ar    1  UNL1       -0.1830
     28 N          -2.7731    0.0392   -0.5688 N.ar    1  UNL1       -0.1702
     29 C          -1.5747   -0.4285   -0.8494 C.ar    1  UNL1        0.0554
     30 H           0.8795   -1.1651   -0.0309 H       1  UNL1        0.0235
     31 H           0.8245    0.3241    0.9102 H       1  UNL1        0.0235
     32 H           2.3269   -0.1182    0.0546 H       1  UNL1        0.0235
     33 H           1.1218    1.6674   -1.1287 H       1  UNL1        0.0345
     34 H           0.8000   -0.9237   -2.7065 H       1  UNL1        0.0235
     35 H           0.7717    0.7107   -3.3716 H       1  UNL1        0.0235
     36 H           2.2699    0.0969   -2.6327 H       1  UNL1        0.0235
     37 H          -3.1071    6.9931   -2.7435 H       1  UNL1        0.0735
     38 H          -5.0662    6.7040   -1.1102 H       1  UNL1        0.0313
     39 H          -3.4682    6.3930   -0.4448 H       1  UNL1        0.0313
     40 H          -5.2590    4.4054   -0.0065 H       1  UNL1        0.0428
     41 H          -3.7311    4.4310   -0.3635 H       1  UNL1        0.0428
     42 H          -5.7571    1.7228   -3.4751 H       1  UNL1        0.0391
     43 H          -3.9417    2.0369   -3.5044 H       1  UNL1        0.0391
     44 H          -4.6403    1.2146   -2.3609 H       1  UNL1        0.0391
     45 H          -3.7560    3.7925   -3.8557 H       1  UNL1        0.0428
     46 H          -5.4026    3.8658   -4.3877 H       1  UNL1        0.0428
     47 H          -5.4756    6.1403   -3.4206 H       1  UNL1        0.0313
     48 H          -4.1537    5.9111   -4.5851 H       1  UNL1        0.0313
     49 H          -5.6125    2.5498   -0.9388 H       1  UNL1        0.1492
     50 H          -6.3587    0.4895   -1.6588 H       1  UNL1        0.0512
     51 H          -5.0403   -0.2827   -0.8063 H       1  UNL1        0.0512
     52 H          -6.7201   -3.0231    0.5868 H       1  UNL1        0.1423
     53 H          -5.9761   -2.1075   -0.6245 H       1  UNL1        0.1423
     54 H          -7.9674   -2.0324    2.4180 H       1  UNL1        0.0636
     55 H          -8.6960    0.0117    3.6115 H       1  UNL1        0.0618
     56 H          -8.2032    2.2779    2.6754 H       1  UNL1        0.0618
     57 H          -7.0426    2.4523    0.5894 H       1  UNL1        0.0621
     58 H          -1.4318   -1.4898   -0.7588 H       1  UNL1        0.0851
@<TRIPOS>BOND
     1     1     2    1
     2     2     3    1
     3     2     4    1
     4     4     5   ar
     5     5     6   ar
     6     6     7   ar
     7     7     8    1
     8     8     9    1
     9     9    10    1
    10    10    11    1
    11    11    12    1
    12    12    13    1
    13    12    14    1
    14    14    15    1
    15     9    15    1
    16     7    16   ar
    17    16    17   ar
    18    17    18    1
    19    18    19    1
    20    19    20    1
    21    20    21   ar
    22    21    22    1
    23    21    23   ar
    24    23    24   ar
    25    24    25   ar
    26    25    26   ar
    27    20    26   ar
    28    17    27   ar
    29     5    27   ar
    30    27    28   ar
    31    28    29   ar
    32     4    29   ar
    33     1    30    1
    34     1    31    1
    35     1    32    1
    36     2    33    1
    37     3    34    1
    38     3    35    1
    39     3    36    1
    40     9    37    1
    41    10    38    1
    42    10    39    1
    43    11    40    1
    44    11    41    1
    45    13    42    1
    46    13    43    1
    47    13    44    1
    48    14    45    1
    49    14    46    1
    50    15    47    1
    51    15    48    1
    52    18    49    1
    53    19    50    1
    54    19    51    1
    55    22    52    1
    56    22    53    1
    57    23    54    1
    58    24    55    1
    59    25    56    1
    60    26    57    1
    61    29    58    1
