@<TRIPOS>MOLECULE
*****
 71 74 0 0 0
SMALL
GASTEIGER

@<TRIPOS>ATOM
      1 C           1.1884   -0.1115    0.0271 C.3     1  UNL1       -0.0585
      2 C           0.7013    0.7459    1.1799 C.3     1  UNL1       -0.0165
      3 C           1.1846    2.1973    1.0881 C.3     1  UNL1       -0.0585
      4 C          -0.7629    0.8489    1.1572 C.ar    1  UNL1        0.0193
      5 C          -1.5756    0.9573    2.2397 C.ar    1  UNL1        0.1677
      6 N          -1.4250    0.6896    3.5842 N.ar    1  UNL1       -0.1753
      7 C          -2.5084    0.6911    4.2552 C.ar    1  UNL1        0.3231
      8 O          -2.4793    0.3913    5.6178 O.3     1  UNL1       -0.4590
      9 C          -3.5206    0.2649    6.6967 C.3     1  UNL1        0.1057
     10 C          -4.3756   -0.9980    6.5584 C.3     1  UNL1       -0.0028
     11 C          -5.1864   -0.8556    5.3172 C.3     1  UNL1        0.0019
     12 N          -6.0142    0.3900    5.4273 N.3     1  UNL1       -0.3051
     13 C          -6.7010    0.4932    4.1752 C.3     1  UNL1       -0.0128
     14 C          -5.2659    1.6692    5.6519 C.3     1  UNL1        0.0019
     15 C          -4.3913    1.5149    6.8577 C.3     1  UNL1       -0.0028
     16 N          -3.7460    0.9458    3.6611 N.ar    1  UNL1       -0.1612
     17 C          -3.9344    1.3165    2.4147 C.ar    1  UNL1        0.2229
     18 N          -5.2208    1.4109    1.7366 N.pl3   1  UNL1       -0.3091
     19 C          -5.6929    0.9406    0.4080 C.3     1  UNL1        0.0388
     20 C          -6.5086   -0.4374    0.2994 C.ar    1  UNL1       -0.0076
     21 C          -6.0034   -1.7750    0.5732 C.ar    1  UNL1        0.0340
     22 N          -4.7899   -2.1635    1.1046 N.pl3   1  UNL1       -0.3358
     23 C          -4.2789   -3.4463    1.5432 C.3     1  UNL1        0.0004
     24 C          -4.0636   -1.1602    1.7291 C.3     1  UNL1        0.0004
     25 C          -6.7823   -2.8530    0.1820 C.ar    1  UNL1       -0.0386
     26 C          -7.9730   -2.7281   -0.4770 C.ar    1  UNL1       -0.0387
     27 C          -8.5322   -1.5024   -0.7616 C.ar    1  UNL1        0.0338
     28 N          -9.7678   -1.4714   -1.4767 N.am    1  UNL1       -0.2857
     29 C         -10.4356   -2.6206   -1.9240 C.2     1  UNL1        0.2141
     30 C         -11.7214   -2.4139   -2.6587 C.3     1  UNL1        0.0125
     31 O         -10.0928   -3.7917   -1.7861 O.2     1  UNL1       -0.2758
     32 C          -7.8140   -0.3491   -0.3512 C.ar    1  UNL1       -0.0340
     33 N          -2.7598    1.4037    1.6998 N.ar    1  UNL1       -0.1830
     34 N          -2.7676    1.5301    0.3642 N.ar    1  UNL1       -0.1702
     35 C          -1.5811    1.0584    0.0248 C.ar    1  UNL1        0.0554
     36 H           0.8501    0.2884   -0.9358 H       1  UNL1        0.0235
     37 H           0.7857   -1.1284    0.1139 H       1  UNL1        0.0235
     38 H           2.2766   -0.1539    0.0147 H       1  UNL1        0.0235
     39 H           1.0364    0.3092    2.1295 H       1  UNL1        0.0345
     40 H           0.8067    2.6746    0.1731 H       1  UNL1        0.0235
     41 H           0.7855    2.7898    1.9254 H       1  UNL1        0.0235
     42 H           2.2696    2.2587    1.1002 H       1  UNL1        0.0235
     43 H          -2.9741    0.1485    7.6425 H       1  UNL1        0.0735
     44 H          -5.0842   -1.1221    7.3865 H       1  UNL1        0.0313
     45 H          -3.7560   -1.9000    6.5071 H       1  UNL1        0.0313
     46 H          -5.8318   -1.7246    5.1395 H       1  UNL1        0.0428
     47 H          -4.4746   -0.9445    4.4902 H       1  UNL1        0.0428
     48 H          -7.2112    1.4381    3.9644 H       1  UNL1        0.0391
     49 H          -5.8311    0.4584    3.5889 H       1  UNL1        0.0391
     50 H          -7.2377   -0.3737    3.7853 H       1  UNL1        0.0391
     51 H          -4.6101    2.1099    4.9019 H       1  UNL1        0.0428
     52 H          -5.9618    2.5102    5.7146 H       1  UNL1        0.0428
     53 H          -5.0696    1.4432    7.7141 H       1  UNL1        0.0313
     54 H          -3.7589    2.3991    6.9918 H       1  UNL1        0.0313
     55 H          -6.0224    1.1579    2.2656 H       1  UNL1        0.1492
     56 H          -6.4286    1.7243    0.1618 H       1  UNL1        0.0512
     57 H          -4.9433    0.9881   -0.3744 H       1  UNL1        0.0512
     58 H          -3.2509   -3.5068    1.1660 H       1  UNL1        0.0428
     59 H          -4.2208   -3.4643    2.6414 H       1  UNL1        0.0428
     60 H          -4.8125   -4.3255    1.2082 H       1  UNL1        0.0428
     61 H          -3.8154   -0.5087    0.9118 H       1  UNL1        0.0428
     62 H          -4.7366   -0.8117    2.4991 H       1  UNL1        0.0428
     63 H          -3.1318   -1.4524    2.2142 H       1  UNL1        0.0428
     64 H          -6.4492   -3.8716    0.3204 H       1  UNL1        0.0637
     65 H          -8.3875   -3.6806   -0.7613 H       1  UNL1        0.0637
     66 H         -10.1660   -0.5654   -1.6846 H       1  UNL1        0.1548
     67 H         -11.6144   -2.8824   -3.6440 H       1  UNL1        0.0323
     68 H         -12.5010   -2.9517   -2.1070 H       1  UNL1        0.0323
     69 H         -11.9961   -1.3692   -2.7702 H       1  UNL1        0.0323
     70 H          -8.2335    0.6324   -0.5792 H       1  UNL1        0.0640
     71 H          -1.3480    0.9838   -1.0254 H       1  UNL1        0.0851
@<TRIPOS>BOND
     1     1     2    1
     2     2     3    1
     3     2     4    1
     4     4     5   ar
     5     5     6   ar
     6     6     7   ar
     7     7     8    1
     8     8     9    1
     9     9    10    1
    10    10    11    1
    11    11    12    1
    12    12    13    1
    13    12    14    1
    14    14    15    1
    15     9    15    1
    16     7    16   ar
    17    16    17   ar
    18    17    18    1
    19    18    19    1
    20    19    20    1
    21    20    21   ar
    22    21    22    1
    23    22    23    1
    24    22    24    1
    25    21    25   ar
    26    25    26   ar
    27    26    27   ar
    28    27    28    1
    29    28    29   am
    30    29    30    1
    31    29    31    2
    32    27    32   ar
    33    20    32   ar
    34    17    33   ar
    35     5    33   ar
    36    33    34   ar
    37    34    35   ar
    38     4    35   ar
    39     1    36    1
    40     1    37    1
    41     1    38    1
    42     2    39    1
    43     3    40    1
    44     3    41    1
    45     3    42    1
    46     9    43    1
    47    10    44    1
    48    10    45    1
    49    11    46    1
    50    11    47    1
    51    13    48    1
    52    13    49    1
    53    13    50    1
    54    14    51    1
    55    14    52    1
    56    15    53    1
    57    15    54    1
    58    18    55    1
    59    19    56    1
    60    19    57    1
    61    23    58    1
    62    23    59    1
    63    23    60    1
    64    24    61    1
    65    24    62    1
    66    24    63    1
    67    25    64    1
    68    26    65    1
    69    28    66    1
    70    30    67    1
    71    30    68    1
    72    30    69    1
    73    32    70    1
    74    35    71    1
