@<TRIPOS>MOLECULE
*****
 71 74 0 0 0
SMALL
GASTEIGER

@<TRIPOS>ATOM
      1 C           1.2124   -0.0184   -0.0187 C.3     1  UNL1       -0.0585
      2 C           0.6967   -0.7565    1.2161 C.3     1  UNL1       -0.0165
      3 C           1.1675   -0.0783    2.5040 C.3     1  UNL1       -0.0585
      4 C          -0.7765   -0.7589    1.1933 C.ar    1  UNL1        0.0193
      5 C          -1.6551   -1.7682    1.5597 C.ar    1  UNL1        0.1677
      6 N          -1.5322   -3.0470    1.9824 N.ar    1  UNL1       -0.1753
      7 C          -2.6256   -3.5961    2.4930 C.ar    1  UNL1        0.3231
      8 O          -2.5241   -4.9228    2.8667 O.3     1  UNL1       -0.4590
      9 C          -3.4025   -6.1472    3.0230 C.3     1  UNL1        0.1057
     10 C          -4.1585   -6.5054    1.7586 C.3     1  UNL1       -0.0028
     11 C          -5.3026   -5.5379    1.7293 C.3     1  UNL1        0.0019
     12 N          -6.2284   -5.3291    2.8814 N.3     1  UNL1       -0.3051
     13 C          -7.2148   -4.2120    2.9212 C.3     1  UNL1       -0.0128
     14 C          -5.4330   -5.0851    4.0858 C.3     1  UNL1        0.0019
     15 C          -4.3720   -6.1389    4.2047 C.3     1  UNL1       -0.0028
     16 N          -3.8201   -2.8828    2.6645 N.ar    1  UNL1       -0.1612
     17 C          -3.9853   -1.6731    2.1411 C.ar    1  UNL1        0.2229
     18 N          -5.2121   -0.9042    2.0984 N.pl3   1  UNL1       -0.3091
     19 C          -5.6988    0.0253    1.0505 C.3     1  UNL1        0.0389
     20 C          -6.5384   -0.3873   -0.2168 C.ar    1  UNL1       -0.0075
     21 C          -6.9898   -1.6617   -0.7662 C.ar    1  UNL1        0.0554
     22 N          -6.9886   -2.7993    0.0300 N.pl3   1  UNL1       -0.3343
     23 C          -7.4584   -4.1384   -0.3099 C.3     1  UNL1        0.0004
     24 C          -5.7365   -2.9208    0.6164 C.3     1  UNL1        0.0004
     25 C          -7.6443   -1.7247   -2.0462 C.ar    1  UNL1        0.0549
     26 N          -7.9768   -2.9507   -2.7456 N.am    1  UNL1       -0.2842
     27 C          -7.1181   -4.0423   -2.8599 C.2     1  UNL1        0.2141
     28 C          -7.7867   -5.4432   -2.8512 C.3     1  UNL1        0.0125
     29 O          -5.8874   -3.9498   -2.7963 O.2     1  UNL1       -0.2758
     30 C          -8.0743   -0.5365   -2.6249 C.ar    1  UNL1       -0.0386
     31 C          -7.7505    0.6951   -2.0569 C.ar    1  UNL1       -0.0596
     32 C          -6.9742    0.7675   -0.9029 C.ar    1  UNL1       -0.0552
     33 N          -2.8653   -1.1348    1.5291 N.ar    1  UNL1       -0.1830
     34 N          -2.8701    0.0849    0.9906 N.ar    1  UNL1       -0.1702
     35 C          -1.5864    0.3491    0.8574 C.ar    1  UNL1        0.0554
     36 H           0.8763    1.0264   -0.0298 H       1  UNL1        0.0235
     37 H           0.8250   -0.4881   -0.9313 H       1  UNL1        0.0235
     38 H           2.3014   -0.0185   -0.0500 H       1  UNL1        0.0235
     39 H           1.0649   -1.7887    1.1969 H       1  UNL1        0.0345
     40 H           0.7999    0.9541    2.5687 H       1  UNL1        0.0235
     41 H           0.7856   -0.6070    3.3865 H       1  UNL1        0.0235
     42 H           2.2576   -0.0595    2.5553 H       1  UNL1        0.0235
     43 H          -2.7065   -6.9789    3.1852 H       1  UNL1        0.0735
     44 H          -4.5692   -7.5163    1.6974 H       1  UNL1        0.0313
     45 H          -3.5211   -6.3476    0.8695 H       1  UNL1        0.0313
     46 H          -5.8235   -5.7767    0.8008 H       1  UNL1        0.0428
     47 H          -4.6411   -4.6868    1.6128 H       1  UNL1        0.0428
     48 H          -8.0094   -4.4092    3.6483 H       1  UNL1        0.0391
     49 H          -6.7767   -3.2629    3.2589 H       1  UNL1        0.0391
     50 H          -7.7857   -3.9766    2.0359 H       1  UNL1        0.0391
     51 H          -4.9805   -4.0928    4.0993 H       1  UNL1        0.0428
     52 H          -6.1048   -5.1029    4.9485 H       1  UNL1        0.0428
     53 H          -4.9033   -7.1020    4.2306 H       1  UNL1        0.0313
     54 H          -3.8445   -6.0065    5.1449 H       1  UNL1        0.0313
     55 H          -6.0532   -1.3445    2.4549 H       1  UNL1        0.1492
     56 H          -6.3960    0.6562    1.6204 H       1  UNL1        0.0512
     57 H          -4.9306    0.7340    0.7306 H       1  UNL1        0.0512
     58 H          -6.6322   -4.7048   -0.7808 H       1  UNL1        0.0428
     59 H          -7.6836   -4.8241    0.5043 H       1  UNL1        0.0428
     60 H          -8.4048   -4.0936   -0.8132 H       1  UNL1        0.0428
     61 H          -4.7975   -2.7312    0.0940 H       1  UNL1        0.0428
     62 H          -5.8505   -2.7732    1.6599 H       1  UNL1        0.0428
     63 H          -5.6961   -3.9355    0.7111 H       1  UNL1        0.0428
     64 H          -8.7033   -2.8995   -3.4443 H       1  UNL1        0.1548
     65 H          -6.9938   -6.1996   -2.9118 H       1  UNL1        0.0323
     66 H          -8.3113   -5.7068   -1.9181 H       1  UNL1        0.0323
     67 H          -8.5046   -5.5616   -3.6538 H       1  UNL1        0.0323
     68 H          -8.6490   -0.5544   -3.5424 H       1  UNL1        0.0637
     69 H          -8.0819    1.6151   -2.5288 H       1  UNL1        0.0618
     70 H          -6.7344    1.7551   -0.5038 H       1  UNL1        0.0621
     71 H          -1.3123    1.3442    0.5410 H       1  UNL1        0.0851
@<TRIPOS>BOND
     1     1     2    1
     2     2     3    1
     3     2     4    1
     4     4     5   ar
     5     5     6   ar
     6     6     7   ar
     7     7     8    1
     8     8     9    1
     9     9    10    1
    10    10    11    1
    11    11    12    1
    12    12    13    1
    13    12    14    1
    14    14    15    1
    15     9    15    1
    16     7    16   ar
    17    16    17   ar
    18    17    18    1
    19    18    19    1
    20    19    20    1
    21    20    21   ar
    22    21    22    1
    23    22    23    1
    24    22    24    1
    25    21    25   ar
    26    25    26    1
    27    26    27   am
    28    27    28    1
    29    27    29    2
    30    25    30   ar
    31    30    31   ar
    32    31    32   ar
    33    20    32   ar
    34    17    33   ar
    35     5    33   ar
    36    33    34   ar
    37    34    35   ar
    38     4    35   ar
    39     1    36    1
    40     1    37    1
    41     1    38    1
    42     2    39    1
    43     3    40    1
    44     3    41    1
    45     3    42    1
    46     9    43    1
    47    10    44    1
    48    10    45    1
    49    11    46    1
    50    11    47    1
    51    13    48    1
    52    13    49    1
    53    13    50    1
    54    14    51    1
    55    14    52    1
    56    15    53    1
    57    15    54    1
    58    18    55    1
    59    19    56    1
    60    19    57    1
    61    23    58    1
    62    23    59    1
    63    23    60    1
    64    24    61    1
    65    24    62    1
    66    24    63    1
    67    26    64    1
    68    28    65    1
    69    28    66    1
    70    28    67    1
    71    30    68    1
    72    31    69    1
    73    32    70    1
    74    35    71    1
