@<TRIPOS>MOLECULE
*****
 71 74 0 0 0
SMALL
GASTEIGER

@<TRIPOS>ATOM
      1 C           1.1281   -0.0136   -0.0627 C.3     1  UNL1       -0.0585
      2 C           0.6298    1.2041   -0.8455 C.3     1  UNL1       -0.0165
      3 C           1.1130    1.1523   -2.2942 C.3     1  UNL1       -0.0585
      4 C          -0.8484    1.2632   -0.8345 C.ar    1  UNL1        0.0193
      5 C          -1.6771    2.3539   -0.6449 C.ar    1  UNL1        0.1677
      6 N          -1.4927    3.6775   -0.3661 N.ar    1  UNL1       -0.1753
      7 C          -2.5754    4.3596   -0.1133 C.ar    1  UNL1        0.3231
      8 O          -2.5008    5.6796    0.1874 O.3     1  UNL1       -0.4590
      9 C          -3.5381    6.7004   -0.0055 C.3     1  UNL1        0.1057
     10 C          -4.7331    6.7436    0.9534 C.3     1  UNL1       -0.0028
     11 C          -5.8502    5.7740    0.5861 C.3     1  UNL1        0.0019
     12 N          -6.2611    5.9156   -0.8220 N.3     1  UNL1       -0.3051
     13 C          -7.2818    4.9304   -1.1673 C.3     1  UNL1       -0.0128
     14 C          -5.1413    5.8348   -1.7767 C.3     1  UNL1        0.0019
     15 C          -4.0162    6.8159   -1.4519 C.3     1  UNL1       -0.0028
     16 N          -3.8356    3.8587   -0.1030 N.ar    1  UNL1       -0.1612
     17 C          -4.0570    2.6318   -0.4784 C.ar    1  UNL1        0.2229
     18 N          -5.3641    2.2255   -0.5550 N.pl3   1  UNL1       -0.3091
     19 C          -5.9019    0.9385   -0.8703 C.3     1  UNL1        0.0388
     20 C          -6.6037    0.2588    0.2702 C.ar    1  UNL1       -0.0092
     21 C          -6.5240   -1.1432    0.4273 C.ar    1  UNL1        0.0357
     22 N          -5.9133   -2.0719   -0.4177 N.pl3   1  UNL1       -0.3357
     23 C          -5.7642   -3.4962   -0.0911 C.3     1  UNL1        0.0004
     24 C          -5.1726   -1.7624   -1.6341 C.3     1  UNL1        0.0004
     25 C          -7.1821   -1.6113    1.5716 C.ar    1  UNL1       -0.0191
     26 C          -7.9060   -0.8707    2.5093 C.ar    1  UNL1        0.0351
     27 N          -8.5202   -1.5157    3.6205 N.am    1  UNL1       -0.2857
     28 C          -8.4604   -2.8812    3.8842 C.2     1  UNL1        0.2141
     29 C          -9.1789   -3.3579    5.1036 C.3     1  UNL1        0.0125
     30 O          -7.8808   -3.7546    3.2260 O.2     1  UNL1       -0.2758
     31 C          -8.0092    0.4924    2.2997 C.ar    1  UNL1       -0.0401
     32 C          -7.3728    1.0485    1.1823 C.ar    1  UNL1       -0.0536
     33 N          -2.9418    1.8418   -0.7538 N.ar    1  UNL1       -0.1830
     34 N          -2.9782    0.5399   -1.0484 N.ar    1  UNL1       -0.1702
     35 C          -1.7115    0.1688   -1.0413 C.ar    1  UNL1        0.0554
     36 H           0.7903   -0.9539   -0.5169 H       1  UNL1        0.0235
     37 H           0.7477    0.0024    0.9657 H       1  UNL1        0.0235
     38 H           2.2192   -0.0341   -0.0316 H       1  UNL1        0.0235
     39 H           1.0208    2.1091   -0.3670 H       1  UNL1        0.0345
     40 H           0.7459    0.2527   -2.8047 H       1  UNL1        0.0235
     41 H           0.7413    2.0158   -2.8591 H       1  UNL1        0.0235
     42 H           2.2039    1.1516   -2.3382 H       1  UNL1        0.0235
     43 H          -2.9747    7.6176    0.2149 H       1  UNL1        0.0735
     44 H          -5.1735    7.7517    0.8897 H       1  UNL1        0.0313
     45 H          -4.4231    6.6043    1.9938 H       1  UNL1        0.0313
     46 H          -6.7115    5.9796    1.2343 H       1  UNL1        0.0428
     47 H          -5.5649    4.7603    0.8621 H       1  UNL1        0.0428
     48 H          -7.6592    5.0708   -2.1828 H       1  UNL1        0.0391
     49 H          -6.8940    3.9222   -1.1554 H       1  UNL1        0.0391
     50 H          -8.1261    4.9609   -0.4720 H       1  UNL1        0.0391
     51 H          -4.7401    4.8267   -1.8637 H       1  UNL1        0.0428
     52 H          -5.5028    6.0459   -2.7895 H       1  UNL1        0.0428
     53 H          -4.4022    7.8315   -1.6181 H       1  UNL1        0.0313
     54 H          -3.1773    6.6696   -2.1402 H       1  UNL1        0.0313
     55 H          -5.9931    2.8494   -0.0888 H       1  UNL1        0.1492
     56 H          -6.5269    0.9463   -1.7705 H       1  UNL1        0.0512
     57 H          -5.0551    0.3529   -1.0952 H       1  UNL1        0.0512
     58 H          -6.1606   -4.0779   -0.9296 H       1  UNL1        0.0428
     59 H          -4.7017   -3.7352    0.0302 H       1  UNL1        0.0428
     60 H          -6.2659   -3.8810    0.7917 H       1  UNL1        0.0428
     61 H          -5.7725   -1.1766   -2.3349 H       1  UNL1        0.0428
     62 H          -4.2321   -1.2950   -1.3717 H       1  UNL1        0.0428
     63 H          -4.8472   -2.6539   -2.1777 H       1  UNL1        0.0428
     64 H          -7.1339   -2.6595    1.7441 H       1  UNL1        0.0655
     65 H          -9.0366   -0.9230    4.2593 H       1  UNL1        0.1548
     66 H          -9.9160   -4.1021    4.7825 H       1  UNL1        0.0323
     67 H          -8.4434   -3.8532    5.7469 H       1  UNL1        0.0323
     68 H          -9.6738   -2.5607    5.6533 H       1  UNL1        0.0323
     69 H          -8.5606    1.1454    2.9702 H       1  UNL1        0.0636
     70 H          -7.4765    2.1220    1.0337 H       1  UNL1        0.0622
     71 H          -1.4757   -0.8772   -1.1987 H       1  UNL1        0.0851
@<TRIPOS>BOND
     1     1     2    1
     2     2     3    1
     3     2     4    1
     4     4     5   ar
     5     5     6   ar
     6     6     7   ar
     7     7     8    1
     8     8     9    1
     9     9    10    1
    10    10    11    1
    11    11    12    1
    12    12    13    1
    13    12    14    1
    14    14    15    1
    15     9    15    1
    16     7    16   ar
    17    16    17   ar
    18    17    18    1
    19    18    19    1
    20    19    20    1
    21    20    21   ar
    22    21    22    1
    23    22    23    1
    24    22    24    1
    25    21    25   ar
    26    25    26   ar
    27    26    27    1
    28    27    28   am
    29    28    29    1
    30    28    30    2
    31    26    31   ar
    32    31    32   ar
    33    20    32   ar
    34    17    33   ar
    35     5    33   ar
    36    33    34   ar
    37    34    35   ar
    38     4    35   ar
    39     1    36    1
    40     1    37    1
    41     1    38    1
    42     2    39    1
    43     3    40    1
    44     3    41    1
    45     3    42    1
    46     9    43    1
    47    10    44    1
    48    10    45    1
    49    11    46    1
    50    11    47    1
    51    13    48    1
    52    13    49    1
    53    13    50    1
    54    14    51    1
    55    14    52    1
    56    15    53    1
    57    15    54    1
    58    18    55    1
    59    19    56    1
    60    19    57    1
    61    23    58    1
    62    23    59    1
    63    23    60    1
    64    24    61    1
    65    24    62    1
    66    24    63    1
    67    25    64    1
    68    27    65    1
    69    29    66    1
    70    29    67    1
    71    29    68    1
    72    31    69    1
    73    32    70    1
    74    35    71    1
