@<TRIPOS>MOLECULE
*****
 66 69 0 0 0
SMALL
GASTEIGER

@<TRIPOS>ATOM
      1 C           1.0135   -0.0635   -0.0424 C.3     1  UNL1       -0.0585
      2 C           0.5037   -0.9000    1.1303 C.3     1  UNL1       -0.0165
      3 C           0.9815   -0.3331    2.4646 C.3     1  UNL1       -0.0585
      4 C          -0.9722   -0.9351    1.1161 C.ar    1  UNL1        0.0193
      5 C          -1.8030   -1.9998    1.3913 C.ar    1  UNL1        0.1677
      6 N          -1.6292   -3.3099    1.7490 N.ar    1  UNL1       -0.1753
      7 C          -2.7106   -3.9568    2.0724 C.ar    1  UNL1        0.3231
      8 O          -2.6423   -5.2740    2.4273 O.3     1  UNL1       -0.4590
      9 C          -3.6784   -6.3157    2.3075 C.3     1  UNL1        0.1057
     10 C          -4.4390   -6.3088    0.9808 C.3     1  UNL1       -0.0028
     11 C          -5.6195   -5.3314    0.9667 C.3     1  UNL1        0.0019
     12 N          -6.4725   -5.3940    2.1677 N.3     1  UNL1       -0.3051
     13 C          -7.4291   -4.2899    2.2301 C.3     1  UNL1       -0.0128
     14 C          -5.7308   -5.4022    3.4423 C.3     1  UNL1        0.0019
     15 C          -4.6581   -6.4679    3.4705 C.3     1  UNL1       -0.0028
     16 N          -3.9662   -3.4111    2.0852 N.ar    1  UNL1       -0.1612
     17 C          -4.1691   -2.2049    1.6344 C.ar    1  UNL1        0.2229
     18 N          -5.4466   -1.7171    1.4804 N.pl3   1  UNL1       -0.3092
     19 C          -5.9391   -0.4186    1.0761 C.3     1  UNL1        0.0370
     20 C          -6.7255   -0.4470   -0.2145 C.ar    1  UNL1       -0.0302
     21 C          -7.1246   -1.6360   -0.8064 C.ar    1  UNL1       -0.0553
     22 C          -7.8610   -1.6311   -1.9773 C.ar    1  UNL1       -0.0402
     23 C          -8.2395   -0.4583   -2.6235 C.ar    1  UNL1        0.0334
     24 N          -8.9941   -0.5038   -3.8278 N.am    1  UNL1       -0.2855
     25 C          -9.4174   -1.6903   -4.4285 C.2     1  UNL1        0.2169
     26 C         -10.1814   -1.5545   -5.7204 C.3     1  UNL1        0.0215
     27 C          -9.4441   -2.3419   -6.7966 C.3     1  UNL1       -0.0570
     28 O          -9.2317   -2.8262   -4.0166 O.2     1  UNL1       -0.2755
     29 C          -7.8433    0.7548   -2.0466 C.ar    1  UNL1       -0.0402
     30 C          -7.0962    0.7550   -0.8480 C.ar    1  UNL1       -0.0553
     31 N          -3.0548   -1.4629    1.2945 N.ar    1  UNL1       -0.1830
     32 N          -3.1004   -0.1740    0.9312 N.ar    1  UNL1       -0.1702
     33 C          -1.8266    0.1654    0.8721 C.ar    1  UNL1        0.0554
     34 H           0.6766    0.9782    0.0312 H       1  UNL1        0.0235
     35 H           0.6317   -0.4588   -0.9919 H       1  UNL1        0.0235
     36 H           2.1035   -0.0626   -0.0735 H       1  UNL1        0.0235
     37 H           0.8810   -1.9235    1.0198 H       1  UNL1        0.0345
     38 H           0.6169    0.6906    2.6157 H       1  UNL1        0.0235
     39 H           0.6059   -0.9350    3.3014 H       1  UNL1        0.0235
     40 H           2.0722   -0.3220    2.5080 H       1  UNL1        0.0235
     41 H          -3.0827   -7.2406    2.3259 H       1  UNL1        0.0735
     42 H          -4.8468   -7.3126    0.7998 H       1  UNL1        0.0313
     43 H          -3.7459   -6.0863    0.1619 H       1  UNL1        0.0313
     44 H          -6.2134   -5.5084    0.0631 H       1  UNL1        0.0428
     45 H          -5.2523   -4.3358    0.7657 H       1  UNL1        0.0428
     46 H          -8.2480   -4.5148    2.9166 H       1  UNL1        0.0391
     47 H          -6.9704   -3.3887    2.6432 H       1  UNL1        0.0391
     48 H          -7.8591   -4.0612    1.2507 H       1  UNL1        0.0391
     49 H          -5.2786   -4.4364    3.6846 H       1  UNL1        0.0428
     50 H          -6.4409   -5.5973    4.2558 H       1  UNL1        0.0428
     51 H          -5.1659   -7.4413    3.3809 H       1  UNL1        0.0313
     52 H          -4.1475   -6.4675    4.4387 H       1  UNL1        0.0313
     53 H          -6.1332   -2.4431    1.4133 H       1  UNL1        0.1492
     54 H          -6.6022   -0.0710    1.8742 H       1  UNL1        0.0512
     55 H          -5.1750    0.3413    0.9709 H       1  UNL1        0.0512
     56 H          -6.8769   -2.6134   -0.4126 H       1  UNL1        0.0621
     57 H          -8.1059   -2.6152   -2.3469 H       1  UNL1        0.0636
     58 H          -9.2299    0.3802   -4.2602 H       1  UNL1        0.1548
     59 H         -11.1628   -2.0130   -5.5443 H       1  UNL1        0.0356
     60 H         -10.3366   -0.5157   -6.0133 H       1  UNL1        0.0356
     61 H          -9.2780   -3.3839   -6.4929 H       1  UNL1        0.0234
     62 H         -10.0157   -2.3566   -7.7273 H       1  UNL1        0.0234
     63 H          -8.4592   -1.9041   -6.9891 H       1  UNL1        0.0234
     64 H          -8.0904    1.7132   -2.4971 H       1  UNL1        0.0636
     65 H          -6.7865    1.7043   -0.4097 H       1  UNL1        0.0621
     66 H          -1.5828    1.1967    0.6553 H       1  UNL1        0.0851
@<TRIPOS>BOND
     1     1     2    1
     2     2     3    1
     3     2     4    1
     4     4     5   ar
     5     5     6   ar
     6     6     7   ar
     7     7     8    1
     8     8     9    1
     9     9    10    1
    10    10    11    1
    11    11    12    1
    12    12    13    1
    13    12    14    1
    14    14    15    1
    15     9    15    1
    16     7    16   ar
    17    16    17   ar
    18    17    18    1
    19    18    19    1
    20    19    20    1
    21    20    21   ar
    22    21    22   ar
    23    22    23   ar
    24    23    24    1
    25    24    25   am
    26    25    26    1
    27    26    27    1
    28    25    28    2
    29    23    29   ar
    30    29    30   ar
    31    20    30   ar
    32    17    31   ar
    33     5    31   ar
    34    31    32   ar
    35    32    33   ar
    36     4    33   ar
    37     1    34    1
    38     1    35    1
    39     1    36    1
    40     2    37    1
    41     3    38    1
    42     3    39    1
    43     3    40    1
    44     9    41    1
    45    10    42    1
    46    10    43    1
    47    11    44    1
    48    11    45    1
    49    13    46    1
    50    13    47    1
    51    13    48    1
    52    14    49    1
    53    14    50    1
    54    15    51    1
    55    15    52    1
    56    18    53    1
    57    19    54    1
    58    19    55    1
    59    21    56    1
    60    22    57    1
    61    24    58    1
    62    26    59    1
    63    26    60    1
    64    27    61    1
    65    27    62    1
    66    27    63    1
    67    29    64    1
    68    30    65    1
    69    33    66    1
