@<TRIPOS>MOLECULE
*****
 79 82 0 0 0
SMALL
GASTEIGER

@<TRIPOS>ATOM
      1 C           1.1007   -0.1082    0.0629 C.3     1  UNL1       -0.0585
      2 C           0.5941    1.3157   -0.1419 C.3     1  UNL1       -0.0165
      3 C           1.0754    1.9065   -1.4617 C.3     1  UNL1       -0.0585
      4 C          -0.8767    1.3181   -0.1400 C.ar    1  UNL1        0.0193
      5 C          -1.7067    2.2293    0.4648 C.ar    1  UNL1        0.1677
      6 N          -1.5203    3.3416    1.2387 N.ar    1  UNL1       -0.1753
      7 C          -2.6050    3.8782    1.7135 C.ar    1  UNL1        0.3231
      8 O          -2.5327    4.9995    2.4932 O.3     1  UNL1       -0.4590
      9 C          -3.5939    5.9144    2.9713 C.3     1  UNL1        0.1057
     10 C          -4.6261    5.3133    3.9284 C.3     1  UNL1       -0.0028
     11 C          -5.6380    4.4463    3.2025 C.3     1  UNL1        0.0019
     12 N          -6.2304    5.1641    2.0447 N.3     1  UNL1       -0.3051
     13 C          -7.0221    4.2620    1.2306 C.3     1  UNL1       -0.0128
     14 C          -5.2566    5.7969    1.1207 C.3     1  UNL1        0.0019
     15 C          -4.2818    6.6860    1.8475 C.3     1  UNL1       -0.0028
     16 N          -3.8524    3.3796    1.4842 N.ar    1  UNL1       -0.1612
     17 C          -4.0647    2.3679    0.6949 C.ar    1  UNL1        0.2229
     18 N          -5.3339    1.9059    0.4687 N.pl3   1  UNL1       -0.3092
     19 C          -5.8802    0.9305   -0.4204 C.3     1  UNL1        0.0370
     20 C          -6.6637   -0.0309    0.4277 C.ar    1  UNL1       -0.0302
     21 C          -6.3017   -1.3522    0.2818 C.ar    1  UNL1       -0.0553
     22 C          -6.8860   -2.3093    1.0715 C.ar    1  UNL1       -0.0402
     23 C          -7.8328   -2.0034    2.0527 C.ar    1  UNL1        0.0334
     24 N          -8.3946   -3.0251    2.8550 N.am    1  UNL1       -0.2855
     25 C          -7.9636   -4.3301    2.8087 C.2     1  UNL1        0.2172
     26 C          -8.7367   -5.3470    3.5890 C.3     1  UNL1        0.0243
     27 C          -9.3783   -6.3652    2.6350 C.3     1  UNL1       -0.0448
     28 C          -8.3788   -7.0777    1.6990 C.3     1  UNL1       -0.0525
     29 C          -7.2749   -7.8127    2.4736 C.3     1  UNL1       -0.0510
     30 C          -7.8532   -8.9416    3.3312 C.3     1  UNL1       -0.0297
     31 C          -8.5930   -9.9713    2.4836 C.3     1  UNL1        0.0442
     32 O          -7.7078  -10.5757    1.5512 O.3     1  UNL1       -0.3950
     33 O          -6.9757   -4.7369    2.1721 O.2     1  UNL1       -0.2755
     34 C          -8.2211   -0.6730    2.2060 C.ar    1  UNL1       -0.0402
     35 C          -7.6482    0.3100    1.3809 C.ar    1  UNL1       -0.0553
     36 N          -2.9542    1.7730    0.1521 N.ar    1  UNL1       -0.1830
     37 N          -3.0008    0.6747   -0.6118 N.ar    1  UNL1       -0.1702
     38 C          -1.7241    0.3884   -0.7858 C.ar    1  UNL1        0.0554
     39 H           0.7642   -0.7704   -0.7441 H       1  UNL1        0.0235
     40 H           0.7127   -0.5230    1.0020 H       1  UNL1        0.0235
     41 H           2.1897   -0.1310    0.0880 H       1  UNL1        0.0235
     42 H           0.9545    1.9394    0.6859 H       1  UNL1        0.0345
     43 H           0.7096    1.3183   -2.3124 H       1  UNL1        0.0235
     44 H           0.6953    2.9280   -1.5921 H       1  UNL1        0.0235
     45 H           2.1650    1.9325   -1.4957 H       1  UNL1        0.0235
     46 H          -3.0449    6.6640    3.5587 H       1  UNL1        0.0735
     47 H          -5.1975    6.1216    4.4070 H       1  UNL1        0.0313
     48 H          -4.1304    4.7528    4.7286 H       1  UNL1        0.0313
     49 H          -6.4284    4.1422    3.8991 H       1  UNL1        0.0428
     50 H          -5.1829    3.4767    3.0056 H       1  UNL1        0.0428
     51 H          -7.6934    4.7465    0.5228 H       1  UNL1        0.0391
     52 H          -6.3393    3.7708    0.5606 H       1  UNL1        0.0391
     53 H          -7.5751    3.5328    1.8281 H       1  UNL1        0.0391
     54 H          -4.6781    5.1028    0.5057 H       1  UNL1        0.0428
     55 H          -5.7993    6.3680    0.3592 H       1  UNL1        0.0428
     56 H          -4.8506    7.5350    2.2485 H       1  UNL1        0.0313
     57 H          -3.5429    7.0818    1.1428 H       1  UNL1        0.0313
     58 H          -5.9824    2.1628    1.1911 H       1  UNL1        0.1492
     59 H          -6.5305    1.3722   -1.1831 H       1  UNL1        0.0512
     60 H          -5.1282    0.3807   -0.9839 H       1  UNL1        0.0512
     61 H          -5.5365   -1.6605   -0.4254 H       1  UNL1        0.0621
     62 H          -6.5272   -3.3029    0.8585 H       1  UNL1        0.0636
     63 H          -9.1008   -2.7634    3.5336 H       1  UNL1        0.1548
     64 H          -8.0082   -5.8339    4.2487 H       1  UNL1        0.0358
     65 H          -9.4818   -4.8836    4.2383 H       1  UNL1        0.0358
     66 H          -9.9104   -7.1124    3.2347 H       1  UNL1        0.0270
     67 H         -10.1412   -5.8733    2.0220 H       1  UNL1        0.0270
     68 H          -8.9213   -7.7660    1.0433 H       1  UNL1        0.0265
     69 H          -7.9300   -6.3798    0.9854 H       1  UNL1        0.0265
     70 H          -6.5286   -8.2033    1.7728 H       1  UNL1        0.0266
     71 H          -6.7107   -7.1261    3.1144 H       1  UNL1        0.0266
     72 H          -7.0355   -9.4237    3.8774 H       1  UNL1        0.0287
     73 H          -8.5311   -8.5336    4.0901 H       1  UNL1        0.0287
     74 H          -9.0144  -10.7537    3.1171 H       1  UNL1        0.0557
     75 H          -9.4312   -9.5311    1.9346 H       1  UNL1        0.0557
     76 H          -7.3446   -9.8745    0.9824 H       1  UNL1        0.2094
     77 H          -8.9478   -0.3719    2.9579 H       1  UNL1        0.0636
     78 H          -7.9606    1.3414    1.5215 H       1  UNL1        0.0621
     79 H          -1.4741   -0.4846   -1.3710 H       1  UNL1        0.0851
@<TRIPOS>BOND
     1     1     2    1
     2     2     3    1
     3     2     4    1
     4     4     5   ar
     5     5     6   ar
     6     6     7   ar
     7     7     8    1
     8     8     9    1
     9     9    10    1
    10    10    11    1
    11    11    12    1
    12    12    13    1
    13    12    14    1
    14    14    15    1
    15     9    15    1
    16     7    16   ar
    17    16    17   ar
    18    17    18    1
    19    18    19    1
    20    19    20    1
    21    20    21   ar
    22    21    22   ar
    23    22    23   ar
    24    23    24    1
    25    24    25   am
    26    25    26    1
    27    26    27    1
    28    27    28    1
    29    28    29    1
    30    29    30    1
    31    30    31    1
    32    31    32    1
    33    25    33    2
    34    23    34   ar
    35    34    35   ar
    36    20    35   ar
    37    17    36   ar
    38     5    36   ar
    39    36    37   ar
    40    37    38   ar
    41     4    38   ar
    42     1    39    1
    43     1    40    1
    44     1    41    1
    45     2    42    1
    46     3    43    1
    47     3    44    1
    48     3    45    1
    49     9    46    1
    50    10    47    1
    51    10    48    1
    52    11    49    1
    53    11    50    1
    54    13    51    1
    55    13    52    1
    56    13    53    1
    57    14    54    1
    58    14    55    1
    59    15    56    1
    60    15    57    1
    61    18    58    1
    62    19    59    1
    63    19    60    1
    64    21    61    1
    65    22    62    1
    66    24    63    1
    67    26    64    1
    68    26    65    1
    69    27    66    1
    70    27    67    1
    71    28    68    1
    72    28    69    1
    73    29    70    1
    74    29    71    1
    75    30    72    1
    76    30    73    1
    77    31    74    1
    78    31    75    1
    79    32    76    1
    80    34    77    1
    81    35    78    1
    82    38    79    1
