@<TRIPOS>MOLECULE
*****
 64 67 0 0 0
SMALL
GASTEIGER

@<TRIPOS>ATOM
      1 C           1.0292   -0.2159   -0.0060 C.3     1  UNL1       -0.0585
      2 C           0.4907    1.0259   -0.6976 C.3     1  UNL1       -0.0165
      3 C           1.0172    1.3055   -2.0967 C.3     1  UNL1       -0.0585
      4 C          -0.9804    1.2452   -0.5449 C.ar    1  UNL1        0.0193
      5 C          -1.7989    2.3040   -0.1315 C.ar    1  UNL1        0.1659
      6 N          -1.6351    3.5625    0.3355 N.ar    1  UNL1       -0.1949
      7 C          -2.6324    4.3918    0.4802 C.ar    1  UNL1        0.2203
      8 N          -2.4275    5.7071    0.8719 N.pl3   1  UNL1       -0.3104
      9 C          -1.1726    6.4917    0.9344 C.3     1  UNL1        0.0256
     10 C          -0.3644    6.4845   -0.3676 C.3     1  UNL1       -0.0216
     11 C           0.4345    5.2099   -0.5435 C.3     1  UNL1        0.0003
     12 N           1.2307    4.9187    0.6751 N.3     1  UNL1       -0.3052
     13 C           1.7365    3.5777    0.5534 C.3     1  UNL1       -0.0128
     14 C           0.4311    4.8674    1.9247 C.3     1  UNL1        0.0003
     15 C          -0.2808    6.1651    2.1329 C.3     1  UNL1       -0.0216
     16 N          -3.9414    3.9957    0.2523 N.ar    1  UNL1       -0.1811
     17 C          -4.1744    2.7569   -0.1257 C.ar    1  UNL1        0.2214
     18 N          -5.4765    2.3478   -0.3333 N.pl3   1  UNL1       -0.3092
     19 C          -5.9486    1.0283   -0.6753 C.3     1  UNL1        0.0370
     20 C          -6.6212    0.3303    0.4733 C.ar    1  UNL1       -0.0302
     21 C          -6.4444   -1.0494    0.5566 C.ar    1  UNL1       -0.0553
     22 C          -7.0339   -1.7777    1.5740 C.ar    1  UNL1       -0.0402
     23 C          -7.8245   -1.1751    2.5484 C.ar    1  UNL1        0.0334
     24 N          -8.4095   -1.9380    3.5940 N.am    1  UNL1       -0.2857
     25 C          -8.2485   -3.3193    3.7335 C.2     1  UNL1        0.2141
     26 C          -8.9513   -3.9434    4.9059 C.3     1  UNL1        0.0125
     27 O          -7.6121   -4.0631    3.0167 O.2     1  UNL1       -0.2758
     28 C          -8.0240    0.2121    2.4666 C.ar    1  UNL1       -0.0402
     29 C          -7.4308    0.9570    1.4275 C.ar    1  UNL1       -0.0553
     30 N          -3.0789    1.8839   -0.3248 N.ar    1  UNL1       -0.1831
     31 N          -3.1533    0.6046   -0.7411 N.ar    1  UNL1       -0.1702
     32 C          -1.8928    0.2270   -0.8608 C.ar    1  UNL1        0.0554
     33 H           0.7265   -1.1353   -0.5005 H       1  UNL1        0.0235
     34 H           0.6845   -0.2290    1.0381 H       1  UNL1        0.0235
     35 H           2.1255   -0.1687    0.0334 H       1  UNL1        0.0235
     36 H           1.0391    1.7019   -0.1211 H       1  UNL1        0.0345
     37 H           0.7030    0.5428   -2.8082 H       1  UNL1        0.0235
     38 H           0.6710    2.2861   -2.4525 H       1  UNL1        0.0235
     39 H           2.1137    1.3503   -2.0856 H       1  UNL1        0.0235
     40 H          -3.2683    6.2739    0.8785 H       1  UNL1        0.1492
     41 H          -1.4751    7.5352    1.0948 H       1  UNL1        0.0499
     42 H           0.3707    7.3005   -0.3455 H       1  UNL1        0.0295
     43 H          -1.0131    6.6648   -1.2316 H       1  UNL1        0.0295
     44 H           1.0967    5.3002   -1.4140 H       1  UNL1        0.0427
     45 H          -0.2194    4.4115   -0.8889 H       1  UNL1        0.0427
     46 H           2.4590    3.2593    1.3060 H       1  UNL1        0.0391
     47 H           0.8493    2.9952    0.7775 H       1  UNL1        0.0391
     48 H           2.1432    3.3689   -0.4422 H       1  UNL1        0.0391
     49 H          -0.3032    4.0565    1.9907 H       1  UNL1        0.0427
     50 H           1.1019    4.6488    2.7647 H       1  UNL1        0.0427
     51 H           0.5007    6.9291    2.2430 H       1  UNL1        0.0295
     52 H          -0.8421    6.1375    3.0712 H       1  UNL1        0.0295
     53 H          -6.1846    3.0304   -0.1060 H       1  UNL1        0.1492
     54 H          -6.6132    1.0768   -1.5411 H       1  UNL1        0.0512
     55 H          -5.1669    0.3610   -1.0151 H       1  UNL1        0.0512
     56 H          -5.8273   -1.5901   -0.1591 H       1  UNL1        0.0621
     57 H          -6.8252   -2.8375    1.5556 H       1  UNL1        0.0636
     58 H          -8.9667   -1.4361    4.2719 H       1  UNL1        0.1548
     59 H          -9.6318   -4.7046    4.5098 H       1  UNL1        0.0323
     60 H          -8.1902   -4.4407    5.5163 H       1  UNL1        0.0323
     61 H          -9.5073   -3.2351    5.5159 H       1  UNL1        0.0323
     62 H          -8.6283    0.7482    3.1938 H       1  UNL1        0.0636
     63 H          -7.5922    2.0312    1.3793 H       1  UNL1        0.0621
     64 H          -1.6590   -0.7778   -1.1835 H       1  UNL1        0.0851
@<TRIPOS>BOND
     1     1     2    1
     2     2     3    1
     3     2     4    1
     4     4     5   ar
     5     5     6   ar
     6     6     7   ar
     7     7     8    1
     8     8     9    1
     9     9    10    1
    10    10    11    1
    11    11    12    1
    12    12    13    1
    13    12    14    1
    14    14    15    1
    15     9    15    1
    16     7    16   ar
    17    16    17   ar
    18    17    18    1
    19    18    19    1
    20    19    20    1
    21    20    21   ar
    22    21    22   ar
    23    22    23   ar
    24    23    24    1
    25    24    25   am
    26    25    26    1
    27    25    27    2
    28    23    28   ar
    29    28    29   ar
    30    20    29   ar
    31    17    30   ar
    32     5    30   ar
    33    30    31   ar
    34    31    32   ar
    35     4    32   ar
    36     1    33    1
    37     1    34    1
    38     1    35    1
    39     2    36    1
    40     3    37    1
    41     3    38    1
    42     3    39    1
    43     8    40    1
    44     9    41    1
    45    10    42    1
    46    10    43    1
    47    11    44    1
    48    11    45    1
    49    13    46    1
    50    13    47    1
    51    13    48    1
    52    14    49    1
    53    14    50    1
    54    15    51    1
    55    15    52    1
    56    18    53    1
    57    19    54    1
    58    19    55    1
    59    21    56    1
    60    22    57    1
    61    24    58    1
    62    26    59    1
    63    26    60    1
    64    26    61    1
    65    28    62    1
    66    29    63    1
    67    32    64    1
