@<TRIPOS>MOLECULE
*****
 60 63 0 0 0
SMALL
GASTEIGER

@<TRIPOS>ATOM
      1 C           1.1865   -0.0547    0.0426 C.3     1  UNL1       -0.0585
      2 C           0.6758   -0.2907   -1.3719 C.3     1  UNL1       -0.0165
      3 C           1.1485   -1.6194   -1.9483 C.3     1  UNL1       -0.0585
      4 C          -0.7917   -0.2813   -1.3534 C.ar    1  UNL1        0.0193
      5 C          -1.6148    0.3109   -2.2750 C.ar    1  UNL1        0.1677
      6 N          -1.4006    1.0433   -3.4065 N.ar    1  UNL1       -0.1753
      7 C          -2.4824    1.3352   -4.0751 C.ar    1  UNL1        0.3231
      8 O          -2.4018    2.1574   -5.1744 O.3     1  UNL1       -0.4578
      9 C          -3.5179    2.7281   -5.9701 C.3     1  UNL1        0.1157
     10 C          -4.3929    1.6469   -6.6317 C.3     1  UNL1        0.0331
     11 N          -5.2038    0.9920   -5.6516 N.3     1  UNL1       -0.3125
     12 C          -5.9265    1.8700   -4.7506 C.3     1  UNL1       -0.0039
     13 C          -5.1502    3.0610   -4.0990 C.3     1  UNL1       -0.0371
     14 C          -4.3562    3.7563   -5.1814 C.3     1  UNL1       -0.0133
     15 N          -3.7193    0.9221   -3.6937 N.ar    1  UNL1       -0.1612
     16 C          -3.9796    0.3225   -2.5640 C.ar    1  UNL1        0.2229
     17 N          -5.2610    0.0549   -2.1388 N.pl3   1  UNL1       -0.3092
     18 C          -5.7492   -0.5859   -0.9599 C.3     1  UNL1        0.0370
     19 C          -6.5395    0.3618   -0.0944 C.ar    1  UNL1       -0.0302
     20 C          -7.4187   -0.2359    0.7978 C.ar    1  UNL1       -0.0553
     21 C          -8.0736    0.5222    1.7508 C.ar    1  UNL1       -0.0402
     22 C          -7.8984    1.9014    1.8559 C.ar    1  UNL1        0.0334
     23 N          -8.5571    2.6462    2.8715 N.am    1  UNL1       -0.2857
     24 C          -9.4048    2.0888    3.8230 C.2     1  UNL1        0.2141
     25 C         -10.0123    3.0353    4.8117 C.3     1  UNL1        0.0125
     26 O          -9.7121    0.9040    3.9368 O.2     1  UNL1       -0.2758
     27 C          -7.0432    2.5252    0.9364 C.ar    1  UNL1       -0.0402
     28 C          -6.3670    1.7558   -0.0340 C.ar    1  UNL1       -0.0553
     29 N          -2.8676   -0.0070   -1.8317 N.ar    1  UNL1       -0.1830
     30 N          -2.9173   -0.7047   -0.6904 N.ar    1  UNL1       -0.1702
     31 C          -1.6427   -0.9066   -0.4160 C.ar    1  UNL1        0.0554
     32 H           0.8485   -0.8466    0.7216 H       1  UNL1        0.0235
     33 H           0.7956    0.8934    0.4347 H       1  UNL1        0.0235
     34 H           2.2746   -0.0268    0.0612 H       1  UNL1        0.0235
     35 H           1.0310    0.5246   -2.0154 H       1  UNL1        0.0345
     36 H           0.7826   -2.4612   -1.3483 H       1  UNL1        0.0235
     37 H           0.7635   -1.7618   -2.9668 H       1  UNL1        0.0235
     38 H           2.2378   -1.6561   -1.9804 H       1  UNL1        0.0235
     39 H          -3.0441    3.2838   -6.7918 H       1  UNL1        0.0747
     40 H          -5.0910    2.0840   -7.3532 H       1  UNL1        0.0460
     41 H          -3.7604    0.9308   -7.1688 H       1  UNL1        0.0460
     42 H          -5.4686    0.0225   -5.7702 H       1  UNL1        0.1221
     43 H          -6.3593    1.2504   -3.9905 H       1  UNL1        0.0424
     44 H          -6.7901    2.2568   -5.2792 H       1  UNL1        0.0424
     45 H          -4.4350    2.8508   -3.2919 H       1  UNL1        0.0279
     46 H          -5.8492    3.7146   -3.5724 H       1  UNL1        0.0279
     47 H          -3.7087    4.5278   -4.7502 H       1  UNL1        0.0302
     48 H          -5.0838    4.2540   -5.8335 H       1  UNL1        0.0302
     49 H          -6.0267    0.4953   -2.6057 H       1  UNL1        0.1492
     50 H          -6.4141   -1.3893   -1.3025 H       1  UNL1        0.0512
     51 H          -5.0078   -1.0633   -0.3317 H       1  UNL1        0.0512
     52 H          -7.5796   -1.3113    0.7979 H       1  UNL1        0.0621
     53 H          -8.7042   -0.0437    2.4195 H       1  UNL1        0.0636
     54 H          -8.3790    3.6431    2.8994 H       1  UNL1        0.1548
     55 H         -11.1006    2.9534    4.7187 H       1  UNL1        0.0323
     56 H          -9.7228    2.6981    5.8129 H       1  UNL1        0.0323
     57 H          -9.7083    4.0704    4.6700 H       1  UNL1        0.0323
     58 H          -6.8584    3.5972    0.9613 H       1  UNL1        0.0636
     59 H          -5.6829    2.2521   -0.7212 H       1  UNL1        0.0621
     60 H          -1.4000   -1.4954    0.4559 H       1  UNL1        0.0851
@<TRIPOS>BOND
     1     1     2    1
     2     2     3    1
     3     2     4    1
     4     4     5   ar
     5     5     6   ar
     6     6     7   ar
     7     7     8    1
     8     8     9    1
     9     9    10    1
    10    10    11    1
    11    11    12    1
    12    12    13    1
    13    13    14    1
    14     9    14    1
    15     7    15   ar
    16    15    16   ar
    17    16    17    1
    18    17    18    1
    19    18    19    1
    20    19    20   ar
    21    20    21   ar
    22    21    22   ar
    23    22    23    1
    24    23    24   am
    25    24    25    1
    26    24    26    2
    27    22    27   ar
    28    27    28   ar
    29    19    28   ar
    30    16    29   ar
    31     5    29   ar
    32    29    30   ar
    33    30    31   ar
    34     4    31   ar
    35     1    32    1
    36     1    33    1
    37     1    34    1
    38     2    35    1
    39     3    36    1
    40     3    37    1
    41     3    38    1
    42     9    39    1
    43    10    40    1
    44    10    41    1
    45    11    42    1
    46    12    43    1
    47    12    44    1
    48    13    45    1
    49    13    46    1
    50    14    47    1
    51    14    48    1
    52    17    49    1
    53    18    50    1
    54    18    51    1
    55    20    52    1
    56    21    53    1
    57    23    54    1
    58    25    55    1
    59    25    56    1
    60    25    57    1
    61    27    58    1
    62    28    59    1
    63    31    60    1
