@<TRIPOS>MOLECULE
*****
 60 63 0 0 0
SMALL
GASTEIGER

@<TRIPOS>ATOM
      1 C           1.0466    7.8687   -1.8243 C.3     1  UNL1       -0.0585
      2 C          -0.3965    7.6689   -2.2953 C.3     1  UNL1       -0.0165
      3 C          -1.3639    8.3927   -1.3582 C.3     1  UNL1       -0.0585
      4 C          -0.5754    8.1568   -3.6888 C.ar    1  UNL1        0.0193
      5 C          -1.2646    7.5680   -4.7334 C.ar    1  UNL1        0.1677
      6 N          -1.9676    6.4141   -4.8842 N.ar    1  UNL1       -0.1753
      7 C          -2.5287    6.2211   -6.0418 C.ar    1  UNL1        0.3231
      8 O          -3.3065    5.1261   -6.3069 O.3     1  UNL1       -0.4578
      9 C          -3.5429    4.1240   -5.2720 C.3     1  UNL1        0.1157
     10 C          -4.3630    4.7000   -4.1086 C.3     1  UNL1       -0.0133
     11 C          -4.7581    3.6169   -3.1070 C.3     1  UNL1       -0.0371
     12 C          -5.4724    2.4541   -3.7869 C.3     1  UNL1       -0.0039
     13 N          -4.6433    1.8949   -4.8554 N.3     1  UNL1       -0.3125
     14 C          -4.3336    2.9235   -5.8663 C.3     1  UNL1        0.0331
     15 N          -2.4455    7.0690   -7.1370 N.ar    1  UNL1       -0.1612
     16 C          -1.7673    8.1863   -7.0171 C.ar    1  UNL1        0.2229
     17 N          -1.6711    9.0656   -8.0817 N.pl3   1  UNL1       -0.3092
     18 C          -0.9243   10.3019   -8.1711 C.3     1  UNL1        0.0370
     19 C           0.2229   10.2313   -9.1450 C.ar    1  UNL1       -0.0302
     20 C           0.8155   11.4392   -9.5051 C.ar    1  UNL1       -0.0553
     21 C           1.9295   11.4602  -10.3308 C.ar    1  UNL1       -0.0402
     22 C           2.5051   10.2906  -10.8268 C.ar    1  UNL1        0.0334
     23 N           3.6462   10.3309  -11.6736 N.am    1  UNL1       -0.2857
     24 C           4.2809   11.4936  -12.0847 C.2     1  UNL1        0.2141
     25 C           5.4642   11.3292  -12.9867 C.3     1  UNL1        0.0125
     26 O           3.9694   12.6524  -11.7852 O.2     1  UNL1       -0.2758
     27 C           1.9267    9.0687  -10.4574 C.ar    1  UNL1       -0.0402
     28 C           0.7987    9.0425   -9.6139 C.ar    1  UNL1       -0.0553
     29 N          -1.1549    8.4478   -5.7766 N.ar    1  UNL1       -0.1830
     30 N          -0.4306    9.5448   -5.4818 N.ar    1  UNL1       -0.1702
     31 C          -0.0785    9.3677   -4.2178 C.ar    1  UNL1        0.0554
     32 H           1.3183    8.9312   -1.7945 H       1  UNL1        0.0235
     33 H           1.7505    7.3709   -2.5011 H       1  UNL1        0.0235
     34 H           1.1867    7.4634   -0.8190 H       1  UNL1        0.0235
     35 H          -0.6193    6.5955   -2.2697 H       1  UNL1        0.0345
     36 H          -1.1684    9.4720   -1.3388 H       1  UNL1        0.0235
     37 H          -2.4016    8.2552   -1.6833 H       1  UNL1        0.0235
     38 H          -1.2704    8.0121   -0.3374 H       1  UNL1        0.0235
     39 H          -2.5738    3.7483   -4.9181 H       1  UNL1        0.0747
     40 H          -3.8037    5.4747   -3.5792 H       1  UNL1        0.0302
     41 H          -5.2607    5.1913   -4.5046 H       1  UNL1        0.0302
     42 H          -3.8593    3.2476   -2.5964 H       1  UNL1        0.0279
     43 H          -5.4068    4.0500   -2.3375 H       1  UNL1        0.0279
     44 H          -5.6857    1.6761   -3.0445 H       1  UNL1        0.0424
     45 H          -6.4383    2.7823   -4.1903 H       1  UNL1        0.0424
     46 H          -5.1376    1.1158   -5.2911 H       1  UNL1        0.1221
     47 H          -5.2670    3.2711   -6.3303 H       1  UNL1        0.0460
     48 H          -3.7574    2.4600   -6.6750 H       1  UNL1        0.0460
     49 H          -2.1059    8.7649   -8.9452 H       1  UNL1        0.1492
     50 H          -1.6134   11.1024   -8.4666 H       1  UNL1        0.0512
     51 H          -0.4844   10.6600   -7.2463 H       1  UNL1        0.0512
     52 H           0.4422   12.3902   -9.1302 H       1  UNL1        0.0621
     53 H           2.3218   12.4430  -10.5493 H       1  UNL1        0.0636
     54 H           4.0096    9.4398  -11.9928 H       1  UNL1        0.1548
     55 H           5.2547   11.8751  -13.9131 H       1  UNL1        0.0323
     56 H           6.3251   11.7958  -12.4958 H       1  UNL1        0.0323
     57 H           5.6942   10.2906  -13.2190 H       1  UNL1        0.0323
     58 H           2.3305    8.1168  -10.7938 H       1  UNL1        0.0636
     59 H           0.3831    8.0839   -9.3089 H       1  UNL1        0.0621
     60 H           0.5224   10.1276   -3.7318 H       1  UNL1        0.0851
@<TRIPOS>BOND
     1     1     2    1
     2     2     3    1
     3     2     4    1
     4     4     5   ar
     5     5     6   ar
     6     6     7   ar
     7     7     8    1
     8     9    10    1
     9    10    11    1
    10    11    12    1
    11    12    13    1
    12    13    14    1
    13     9    14    1
    14     7    15   ar
    15    15    16   ar
    16    16    17    1
    17    17    18    1
    18    18    19    1
    19    19    20   ar
    20    20    21   ar
    21    21    22   ar
    22    22    23    1
    23    23    24   am
    24    24    25    1
    25    24    26    2
    26    22    27   ar
    27    27    28   ar
    28    19    28   ar
    29    16    29   ar
    30     5    29   ar
    31    29    30   ar
    32    30    31   ar
    33     4    31   ar
    34     1    32    1
    35     1    33    1
    36     1    34    1
    37     2    35    1
    38     3    36    1
    39     3    37    1
    40     3    38    1
    41    10    40    1
    42    10    41    1
    43    11    42    1
    44    11    43    1
    45    12    44    1
    46    12    45    1
    47    13    46    1
    48    14    47    1
    49    14    48    1
    50    17    49    1
    51    18    50    1
    52    18    51    1
    53    20    52    1
    54    21    53    1
    55    23    54    1
    56    25    55    1
    57    25    56    1
    58    25    57    1
    59    27    58    1
    60    28    59    1
    61    31    60    1
    62     9    39    1
    63     9     8    1
