@<TRIPOS>MOLECULE
*****
 61 64 0 0 0
SMALL
GASTEIGER

@<TRIPOS>ATOM
      1 C           1.0021    0.0265    0.0784 C.3     1  UNL1       -0.0585
      2 C           0.4672   -0.5854   -1.2080 C.3     1  UNL1       -0.0165
      3 C           0.9939   -2.0079   -1.4326 C.3     1  UNL1       -0.0585
      4 C          -1.0305   -0.5203   -1.3294 C.ar    1  UNL1        0.0193
      5 C          -1.8956   -0.1673   -2.3613 C.ar    1  UNL1        0.1659
      6 N          -1.7727    0.2668   -3.6229 N.ar    1  UNL1       -0.1949
      7 C          -2.7626    0.3750   -4.4563 C.ar    1  UNL1        0.2203
      8 N          -2.5432    0.6806   -5.7920 N.pl3   1  UNL1       -0.3093
      9 C          -1.2429    0.8442   -6.4880 C.3     1  UNL1        0.0358
     10 C          -0.4322   -0.4717   -6.5530 C.3     1  UNL1       -0.0322
     11 C           0.0929   -0.8601   -5.1947 C.3     1  UNL1       -0.0387
     12 C           0.7663    0.3644   -4.5464 C.3     1  UNL1       -0.0040
     13 N           0.0928    1.6495   -4.5837 N.3     1  UNL1       -0.3142
     14 C          -0.3891    1.9947   -5.8910 C.3     1  UNL1        0.0144
     15 N          -4.0630    0.1622   -4.0402 N.ar    1  UNL1       -0.1811
     16 C          -4.2617   -0.2138   -2.7950 C.ar    1  UNL1        0.2214
     17 N          -5.5499   -0.4135   -2.3671 N.pl3   1  UNL1       -0.3092
     18 C          -5.9752   -0.7113   -1.0303 C.3     1  UNL1        0.0370
     19 C          -6.6875    0.4450   -0.3995 C.ar    1  UNL1       -0.0302
     20 C          -7.7137    0.1270    0.4760 C.ar    1  UNL1       -0.0553
     21 C          -8.3685    1.1252    1.1702 C.ar    1  UNL1       -0.0402
     22 C          -8.0259    2.4710    1.0368 C.ar    1  UNL1        0.0334
     23 N          -8.7245    3.4761    1.7573 N.am    1  UNL1       -0.2857
     24 C          -9.7784    3.2318    2.6235 C.2     1  UNL1        0.2141
     25 C         -10.3964    4.4222    3.2827 C.3     1  UNL1        0.0125
     26 O         -10.2654    2.1275    2.9089 O.2     1  UNL1       -0.2758
     27 C          -6.9688    2.8009    0.1775 C.ar    1  UNL1       -0.0402
     28 C          -6.2946    1.7872   -0.5285 C.ar    1  UNL1       -0.0553
     29 N          -3.1546   -0.4007   -1.9288 N.ar    1  UNL1       -0.1831
     30 N          -3.1887   -0.8156   -0.6452 N.ar    1  UNL1       -0.1702
     31 C          -1.9118   -0.8819   -0.2928 C.ar    1  UNL1        0.0554
     32 H           0.6819   -0.5204    0.9647 H       1  UNL1        0.0235
     33 H           0.6598    1.0658    0.1519 H       1  UNL1        0.0235
     34 H           2.0982    0.0460    0.0501 H       1  UNL1        0.0235
     35 H           0.9507    0.0768   -1.9019 H       1  UNL1        0.0345
     36 H           0.6684   -2.6809   -0.6319 H       1  UNL1        0.0235
     37 H           0.6395   -2.4290   -2.3820 H       1  UNL1        0.0235
     38 H           2.0896   -2.0239   -1.4586 H       1  UNL1        0.0235
     39 H          -3.3679    0.7868   -6.3661 H       1  UNL1        0.1492
     40 H          -1.4476    1.1246   -7.5292 H       1  UNL1        0.0511
     41 H          -1.0301   -1.2858   -6.9743 H       1  UNL1        0.0284
     42 H           0.4495   -0.3437   -7.1933 H       1  UNL1        0.0284
     43 H          -0.7346   -1.3071   -4.6309 H       1  UNL1        0.0278
     44 H           0.8007   -1.6935   -5.2147 H       1  UNL1        0.0278
     45 H           0.8532    0.0916   -3.5294 H       1  UNL1        0.0424
     46 H           1.7817    0.4862   -4.9114 H       1  UNL1        0.0424
     47 H           0.4292    2.3854   -3.9774 H       1  UNL1        0.1220
     48 H           0.4936    2.1915   -6.5093 H       1  UNL1        0.0442
     49 H          -0.9774    2.9187   -5.8567 H       1  UNL1        0.0442
     50 H          -6.2738   -0.1355   -3.0174 H       1  UNL1        0.1492
     51 H          -6.6135   -1.5993   -1.0796 H       1  UNL1        0.0512
     52 H          -5.2104   -0.9904   -0.3170 H       1  UNL1        0.0512
     53 H          -8.0074   -0.9048    0.6518 H       1  UNL1        0.0621
     54 H          -9.1533    0.7783    1.8246 H       1  UNL1        0.0636
     55 H          -8.4230    4.4335    1.6139 H       1  UNL1        0.1548
     56 H         -11.4583    4.4366    3.0140 H       1  UNL1        0.0323
     57 H         -10.3133    4.2831    4.3660 H       1  UNL1        0.0323
     58 H          -9.9336    5.3653    2.9974 H       1  UNL1        0.0323
     59 H          -6.6362    3.8274    0.0401 H       1  UNL1        0.0636
     60 H          -5.4501    2.0456   -1.1670 H       1  UNL1        0.0621
     61 H          -1.6537   -1.2008    0.7077 H       1  UNL1        0.0851
@<TRIPOS>BOND
     1     1     2    1
     2     2     3    1
     3     2     4    1
     4     4     5   ar
     5     5     6   ar
     6     6     7   ar
     7     7     8    1
     8     8     9    1
     9     9    10    1
    10    10    11    1
    11    11    12    1
    12    12    13    1
    13    13    14    1
    14     9    14    1
    15     7    15   ar
    16    15    16   ar
    17    16    17    1
    18    17    18    1
    19    18    19    1
    20    19    20   ar
    21    20    21   ar
    22    21    22   ar
    23    22    23    1
    24    23    24   am
    25    24    25    1
    26    24    26    2
    27    22    27   ar
    28    27    28   ar
    29    19    28   ar
    30    16    29   ar
    31     5    29   ar
    32    29    30   ar
    33    30    31   ar
    34     4    31   ar
    35     1    32    1
    36     1    33    1
    37     1    34    1
    38     2    35    1
    39     3    36    1
    40     3    37    1
    41     3    38    1
    42     8    39    1
    43     9    40    1
    44    10    41    1
    45    10    42    1
    46    11    43    1
    47    11    44    1
    48    12    45    1
    49    12    46    1
    50    13    47    1
    51    14    48    1
    52    14    49    1
    53    17    50    1
    54    18    51    1
    55    18    52    1
    56    20    53    1
    57    21    54    1
    58    23    55    1
    59    25    56    1
    60    25    57    1
    61    25    58    1
    62    27    59    1
    63    28    60    1
    64    31    61    1
