@<TRIPOS>MOLECULE
*****
 61 64 0 0 0
SMALL
GASTEIGER

@<TRIPOS>ATOM
      1 C           1.0851    0.1508   -0.1138 C.3     1  UNL1       -0.0585
      2 C           0.5273   -0.7349    0.9916 C.3     1  UNL1       -0.0165
      3 C           1.0531   -0.2841    2.3684 C.3     1  UNL1       -0.0585
      4 C          -0.9938   -0.8179    0.9649 C.ar    1  UNL1        0.0193
      5 C          -1.9109   -1.8797    1.0215 C.ar    1  UNL1        0.1659
      6 N          -1.8395   -3.1959    1.0787 N.ar    1  UNL1       -0.1949
      7 C          -2.8153   -4.0215    1.4018 C.ar    1  UNL1        0.2203
      8 N          -2.5338   -5.3754    1.6403 N.pl3   1  UNL1       -0.3104
      9 C          -1.2036   -5.9800    2.0446 C.3     1  UNL1        0.0256
     10 C          -0.6554   -5.3741    3.3464 C.3     1  UNL1       -0.0219
     11 C          -0.3271   -3.9359    3.1111 C.3     1  UNL1       -0.0024
     12 N           0.5181   -3.7697    1.9029 N.3     1  UNL1       -0.3159
     13 C           0.2250   -4.5230    0.6436 C.3     1  UNL1       -0.0024
     14 C          -0.1259   -5.9412    0.9468 C.3     1  UNL1       -0.0219
     15 N          -4.0846   -3.5085    1.5326 N.ar    1  UNL1       -0.1811
     16 C          -4.2562   -2.2068    1.3762 C.ar    1  UNL1        0.2214
     17 N          -5.5264   -1.7010    1.4816 N.pl3   1  UNL1       -0.3092
     18 C          -5.9575   -0.3793    1.0817 C.3     1  UNL1        0.0370
     19 C          -6.6565   -0.3535   -0.2464 C.ar    1  UNL1       -0.0302
     20 C          -7.0451   -1.5246   -0.8747 C.ar    1  UNL1       -0.0553
     21 C          -7.7474   -1.4775   -2.0608 C.ar    1  UNL1       -0.0402
     22 C          -8.0845   -0.2789   -2.6838 C.ar    1  UNL1        0.0334
     23 N          -8.8345   -0.2802   -3.8886 N.am    1  UNL1       -0.2857
     24 C          -9.2895   -1.4352   -4.5184 C.2     1  UNL1        0.2141
     25 C         -10.0707   -1.2405   -5.7787 C.3     1  UNL1        0.0125
     26 O          -9.1233   -2.5960   -4.1547 O.2     1  UNL1       -0.2758
     27 C          -7.6607    0.9148   -2.0850 C.ar    1  UNL1       -0.0402
     28 C          -6.9446    0.8727   -0.8741 C.ar    1  UNL1       -0.0553
     29 N          -3.1472   -1.3489    1.1267 N.ar    1  UNL1       -0.1831
     30 N          -3.1373   -0.0062    1.0057 N.ar    1  UNL1       -0.1702
     31 C          -1.8472    0.3001    0.8797 C.ar    1  UNL1        0.0554
     32 H           0.7696    1.1893   -0.0026 H       1  UNL1        0.0235
     33 H           0.7468   -0.2247   -1.0852 H       1  UNL1        0.0235
     34 H           2.1809    0.1180   -0.1069 H       1  UNL1        0.0235
     35 H           1.0051   -1.6819    0.7485 H       1  UNL1        0.0345
     36 H           0.7301    0.7356    2.6055 H       1  UNL1        0.0235
     37 H           0.7019   -0.9356    3.1777 H       1  UNL1        0.0235
     38 H           2.1501   -0.2970    2.3972 H       1  UNL1        0.0235
     39 H          -3.3182   -5.8845    2.0372 H       1  UNL1        0.1492
     40 H          -1.3623   -7.0466    2.2500 H       1  UNL1        0.0499
     41 H          -1.3895   -5.4686    4.1538 H       1  UNL1        0.0295
     42 H           0.2701   -5.8593    3.6798 H       1  UNL1        0.0295
     43 H          -1.2823   -3.3931    3.1326 H       1  UNL1        0.0425
     44 H           0.1595   -3.4325    3.9514 H       1  UNL1        0.0425
     45 H           0.2028   -2.8482    1.6407 H       1  UNL1        0.1219
     46 H           1.0539   -4.3824   -0.0554 H       1  UNL1        0.0425
     47 H          -0.5738   -4.1828   -0.0324 H       1  UNL1        0.0425
     48 H           0.8072   -6.4259    1.2589 H       1  UNL1        0.0295
     49 H          -0.4734   -6.4529    0.0418 H       1  UNL1        0.0295
     50 H          -6.2399   -2.4199    1.5139 H       1  UNL1        0.1492
     51 H          -6.6102    0.0031    1.8667 H       1  UNL1        0.0512
     52 H          -5.1625    0.3471    1.0028 H       1  UNL1        0.0512
     53 H          -6.8185   -2.5096   -0.4821 H       1  UNL1        0.0621
     54 H          -8.0125   -2.4464   -2.4541 H       1  UNL1        0.0636
     55 H          -9.0509    0.6208   -4.2965 H       1  UNL1        0.1548
     56 H          -9.5449   -1.7772   -6.5754 H       1  UNL1        0.0323
     57 H         -11.0503   -1.7077   -5.6307 H       1  UNL1        0.0323
     58 H         -10.1973   -0.1966   -6.0561 H       1  UNL1        0.0323
     59 H          -7.8701    1.8879   -2.5227 H       1  UNL1        0.0636
     60 H          -6.5997    1.8009   -0.4160 H       1  UNL1        0.0621
     61 H          -1.5595    1.3339    0.7464 H       1  UNL1        0.0851
@<TRIPOS>BOND
     1     1     2    1
     2     2     3    1
     3     2     4    1
     4     4     5   ar
     5     5     6   ar
     6     6     7   ar
     7     7     8    1
     8     8     9    1
     9     9    10    1
    10    10    11    1
    11    11    12    1
    12    12    13    1
    13    13    14    1
    14     9    14    1
    15     7    15   ar
    16    15    16   ar
    17    16    17    1
    18    17    18    1
    19    18    19    1
    20    19    20   ar
    21    20    21   ar
    22    21    22   ar
    23    22    23    1
    24    23    24   am
    25    24    25    1
    26    24    26    2
    27    22    27   ar
    28    27    28   ar
    29    19    28   ar
    30    16    29   ar
    31     5    29   ar
    32    29    30   ar
    33    30    31   ar
    34     4    31   ar
    35     1    32    1
    36     1    33    1
    37     1    34    1
    38     2    35    1
    39     3    36    1
    40     3    37    1
    41     3    38    1
    42     8    39    1
    43     9    40    1
    44    10    41    1
    45    10    42    1
    46    11    43    1
    47    11    44    1
    48    12    45    1
    49    13    46    1
    50    13    47    1
    51    14    48    1
    52    14    49    1
    53    17    50    1
    54    18    51    1
    55    18    52    1
    56    20    53    1
    57    21    54    1
    58    23    55    1
    59    25    56    1
    60    25    57    1
    61    25    58    1
    62    27    59    1
    63    28    60    1
    64    31    61    1
