@<TRIPOS>MOLECULE
*****
 58 61 0 0 0
SMALL
GASTEIGER

@<TRIPOS>ATOM
      1 C           1.1848   -0.0217   -0.0525 C.3     1  UNL1       -0.0585
      2 C           0.6805   -1.3878   -0.4834 C.3     1  UNL1       -0.0165
      3 C           1.1320   -2.5264    0.4200 C.3     1  UNL1       -0.0585
      4 C          -0.7807   -1.3461   -0.4430 C.ar    1  UNL1        0.0193
      5 C          -1.6180   -1.8621   -1.3738 C.ar    1  UNL1        0.1677
      6 N          -1.4433   -2.5215   -2.5735 N.ar    1  UNL1       -0.1753
      7 C          -2.5226   -2.8854   -3.1457 C.ar    1  UNL1        0.3231
      8 O          -2.4767   -3.5534   -4.3758 O.3     1  UNL1       -0.4590
      9 C          -3.5251   -4.1029   -5.3161 C.3     1  UNL1        0.1057
     10 C          -4.3738   -3.0044   -5.9633 C.3     1  UNL1       -0.0028
     11 C          -5.1211   -2.3295   -4.8736 C.3     1  UNL1        0.0019
     12 N          -5.9221   -3.3717   -4.1556 N.3     1  UNL1       -0.3051
     13 C          -6.6137   -2.6448   -3.1399 C.3     1  UNL1       -0.0128
     14 C          -5.1863   -4.5407   -3.5642 C.3     1  UNL1        0.0019
     15 C          -4.4008   -5.1825   -4.6671 C.3     1  UNL1       -0.0028
     16 N          -3.7710   -2.6569   -2.5685 N.ar    1  UNL1       -0.1612
     17 C          -3.9815   -2.0645   -1.4302 C.ar    1  UNL1        0.2229
     18 N          -5.2232   -1.9124   -0.7882 N.pl3   1  UNL1       -0.3092
     19 C          -5.7573   -1.0607    0.2345 C.3     1  UNL1        0.0371
     20 C          -6.5918    0.0737   -0.3470 C.ar    1  UNL1       -0.0286
     21 C          -7.8975   -0.0639   -0.8859 C.ar    1  UNL1       -0.0364
     22 C          -8.6530    1.0633   -1.2686 C.ar    1  UNL1        0.0248
     23 N          -9.9824    0.9530   -1.6608 N.pl3   1  UNL1       -0.3580
     24 C          -8.0959    2.3307   -1.0838 C.ar    1  UNL1       -0.0410
     25 C          -6.7929    2.4749   -0.6084 C.ar    1  UNL1       -0.0597
     26 C          -6.0437    1.3551   -0.2644 C.ar    1  UNL1       -0.0570
     27 N          -2.8487   -1.6181   -0.8357 N.ar    1  UNL1       -0.1830
     28 N          -2.8712   -0.9562    0.3225 N.ar    1  UNL1       -0.1702
     29 C          -1.5918   -0.7996    0.5782 C.ar    1  UNL1        0.0554
     30 H           0.8447    0.2196    0.9618 H       1  UNL1        0.0235
     31 H           0.7756    0.7536   -0.7158 H       1  UNL1        0.0235
     32 H           2.2698    0.0166   -0.0745 H       1  UNL1        0.0235
     33 H           1.0114   -1.5872   -1.5113 H       1  UNL1        0.0345
     34 H           0.7570   -2.3885    1.4416 H       1  UNL1        0.0235
     35 H           0.7285   -3.4859    0.0657 H       1  UNL1        0.0235
     36 H           2.2184   -2.5898    0.4419 H       1  UNL1        0.0235
     37 H          -2.9929   -4.5919   -6.1430 H       1  UNL1        0.0735
     38 H          -5.1261   -3.3940   -6.6602 H       1  UNL1        0.0313
     39 H          -3.7559   -2.2767   -6.4984 H       1  UNL1        0.0313
     40 H          -5.7832   -1.5351   -5.2363 H       1  UNL1        0.0428
     41 H          -4.3875   -1.7219   -4.3239 H       1  UNL1        0.0428
     42 H          -6.9580   -3.3016   -2.3319 H       1  UNL1        0.0391
     43 H          -5.8722   -1.9273   -2.8330 H       1  UNL1        0.0391
     44 H          -7.3832   -1.9312   -3.4199 H       1  UNL1        0.0391
     45 H          -4.4667   -4.4588   -2.7423 H       1  UNL1        0.0428
     46 H          -5.8791   -5.2303   -3.0711 H       1  UNL1        0.0428
     47 H          -5.1327   -5.6151   -5.3592 H       1  UNL1        0.0313
     48 H          -3.7786   -5.9988   -4.2820 H       1  UNL1        0.0313
     49 H          -6.0363   -2.2408   -1.2424 H       1  UNL1        0.1492
     50 H          -6.4400   -1.6820    0.8291 H       1  UNL1        0.0512
     51 H          -5.0222   -0.6877    0.9405 H       1  UNL1        0.0512
     52 H          -8.3543   -1.0453   -0.9969 H       1  UNL1        0.0639
     53 H         -10.3664    0.0587   -1.9343 H       1  UNL1        0.1423
     54 H         -10.4663    1.7765   -2.0030 H       1  UNL1        0.1423
     55 H          -8.6711    3.2247   -1.3115 H       1  UNL1        0.0636
     56 H          -6.3631    3.4633   -0.4796 H       1  UNL1        0.0618
     57 H          -5.0302    1.4786    0.1100 H       1  UNL1        0.0621
     58 H          -1.3277   -0.2971    1.4933 H       1  UNL1        0.0851
@<TRIPOS>BOND
     1     1     2    1
     2     2     3    1
     3     2     4    1
     4     4     5   ar
     5     5     6   ar
     6     6     7   ar
     7     7     8    1
     8     8     9    1
     9     9    10    1
    10    10    11    1
    11    11    12    1
    12    12    13    1
    13    12    14    1
    14    14    15    1
    15     9    15    1
    16     7    16   ar
    17    16    17   ar
    18    17    18    1
    19    18    19    1
    20    19    20    1
    21    20    21   ar
    22    21    22   ar
    23    22    23    1
    24    22    24   ar
    25    24    25   ar
    26    25    26   ar
    27    20    26   ar
    28    17    27   ar
    29     5    27   ar
    30    27    28   ar
    31    28    29   ar
    32     4    29   ar
    33     1    30    1
    34     1    31    1
    35     1    32    1
    36     2    33    1
    37     3    34    1
    38     3    35    1
    39     3    36    1
    40     9    37    1
    41    10    38    1
    42    10    39    1
    43    11    40    1
    44    11    41    1
    45    13    42    1
    46    13    43    1
    47    13    44    1
    48    14    45    1
    49    14    46    1
    50    15    47    1
    51    15    48    1
    52    18    49    1
    53    19    50    1
    54    19    51    1
    55    21    52    1
    56    23    53    1
    57    23    54    1
    58    24    55    1
    59    25    56    1
    60    26    57    1
    61    29    58    1
