@<TRIPOS>MOLECULE
*****
 60 63 0 0 0
SMALL
GASTEIGER

@<TRIPOS>ATOM
      1 C           1.1092   -0.0109    0.0933 C.3     1  UNL1       -0.0585
      2 C           0.5821    1.2452   -0.6087 C.3     1  UNL1       -0.0165
      3 C           1.0903    1.2904   -2.0503 C.3     1  UNL1       -0.0585
      4 C          -0.9076    1.2807   -0.5890 C.ar    1  UNL1        0.0193
      5 C          -1.7508    2.3482   -0.3608 C.ar    1  UNL1        0.1659
      6 N          -1.5627    3.6516   -0.0908 N.ar    1  UNL1       -0.1949
      7 C          -2.6060    4.4226    0.0697 C.ar    1  UNL1        0.2203
      8 N          -2.4154    5.7530    0.3428 N.pl3   1  UNL1       -0.3103
      9 C          -1.1096    6.3805    0.5374 C.3     1  UNL1        0.0275
     10 C          -0.2807    6.3298   -0.7512 C.3     1  UNL1       -0.0109
     11 C           1.1629    6.7321   -0.5079 C.3     1  UNL1        0.0493
     12 O           1.7356    5.9913    0.5661 O.3     1  UNL1       -0.3796
     13 C           1.0656    6.2221    1.8021 C.3     1  UNL1        0.0493
     14 C          -0.3785    5.7638    1.7342 C.3     1  UNL1       -0.0109
     15 N          -3.9118    3.9752   -0.0264 N.ar    1  UNL1       -0.1811
     16 C          -4.1310    2.7104   -0.3021 C.ar    1  UNL1        0.2214
     17 N          -5.4295    2.2625   -0.4293 N.pl3   1  UNL1       -0.3092
     18 C          -5.8969    0.9297   -0.7190 C.3     1  UNL1        0.0370
     19 C          -6.6012    0.3007    0.4524 C.ar    1  UNL1       -0.0302
     20 C          -6.4748   -1.0795    0.5910 C.ar    1  UNL1       -0.0553
     21 C          -7.0816   -1.7431    1.6432 C.ar    1  UNL1       -0.0402
     22 C          -7.8434   -1.0724    2.5973 C.ar    1  UNL1        0.0334
     23 N          -8.4426   -1.7717    3.6798 N.am    1  UNL1       -0.2857
     24 C          -8.3332   -3.1393    3.8877 C.2     1  UNL1        0.2141
     25 C          -9.0385   -3.6954    5.0839 C.3     1  UNL1        0.0125
     26 O          -7.7164   -3.9498    3.1857 O.2     1  UNL1       -0.2758
     27 C          -7.9977    0.3144    2.4560 C.ar    1  UNL1       -0.0402
     28 C          -7.3869    0.9935    1.3823 C.ar    1  UNL1       -0.0553
     29 N          -3.0181    1.8636   -0.4698 N.ar    1  UNL1       -0.1831
     30 N          -3.0575    0.5484   -0.7675 N.ar    1  UNL1       -0.1702
     31 C          -1.7792    0.2011   -0.8402 C.ar    1  UNL1        0.0554
     32 H           0.7814   -0.9244   -0.4181 H       1  UNL1        0.0235
     33 H           0.7432   -0.0649    1.1249 H       1  UNL1        0.0235
     34 H           2.2022   -0.0191    0.1128 H       1  UNL1        0.0235
     35 H           0.9676    2.1221   -0.0730 H       1  UNL1        0.0345
     36 H           0.7382    0.4232   -2.6223 H       1  UNL1        0.0235
     37 H           0.7322    2.1892   -2.5647 H       1  UNL1        0.0235
     38 H           2.1838    1.2923   -2.0769 H       1  UNL1        0.0235
     39 H          -3.2442    6.3029    0.5245 H       1  UNL1        0.1492
     40 H          -1.2751    7.4424    0.7705 H       1  UNL1        0.0500
     41 H          -0.2704    5.3188   -1.1673 H       1  UNL1        0.0305
     42 H          -0.7316    6.9678   -1.5204 H       1  UNL1        0.0305
     43 H           1.7530    6.5209   -1.4062 H       1  UNL1        0.0560
     44 H           1.2506    7.8033   -0.2992 H       1  UNL1        0.0560
     45 H           1.1382    7.2820    2.0671 H       1  UNL1        0.0560
     46 H           1.5895    5.6493    2.5747 H       1  UNL1        0.0560
     47 H          -0.9039    6.0003    2.6666 H       1  UNL1        0.0305
     48 H          -0.3654    4.6731    1.6621 H       1  UNL1        0.0305
     49 H          -6.1425    2.9631   -0.2889 H       1  UNL1        0.1492
     50 H          -6.5523    0.9384   -1.5945 H       1  UNL1        0.0512
     51 H          -5.1067    0.2441   -1.0039 H       1  UNL1        0.0512
     52 H          -5.8818   -1.6703   -0.1048 H       1  UNL1        0.0621
     53 H          -6.9084   -2.8089    1.6703 H       1  UNL1        0.0636
     54 H          -8.9775   -1.2198    4.3406 H       1  UNL1        0.1548
     55 H          -9.7482   -4.4505    4.7287 H       1  UNL1        0.0323
     56 H          -8.2895   -4.1908    5.7113 H       1  UNL1        0.0323
     57 H          -9.5659   -2.9427    5.6672 H       1  UNL1        0.0323
     58 H          -8.5777    0.9018    3.1636 H       1  UNL1        0.0636
     59 H          -7.5131    2.0695    1.2906 H       1  UNL1        0.0621
     60 H          -1.5292   -0.8253   -1.0753 H       1  UNL1        0.0851
@<TRIPOS>BOND
     1     1     2    1
     2     2     3    1
     3     2     4    1
     4     4     5   ar
     5     5     6   ar
     6     6     7   ar
     7     7     8    1
     8     8     9    1
     9     9    10    1
    10    10    11    1
    11    11    12    1
    12    12    13    1
    13    13    14    1
    14     9    14    1
    15     7    15   ar
    16    15    16   ar
    17    16    17    1
    18    17    18    1
    19    18    19    1
    20    19    20   ar
    21    20    21   ar
    22    21    22   ar
    23    22    23    1
    24    23    24   am
    25    24    25    1
    26    24    26    2
    27    22    27   ar
    28    27    28   ar
    29    19    28   ar
    30    16    29   ar
    31     5    29   ar
    32    29    30   ar
    33    30    31   ar
    34     4    31   ar
    35     1    32    1
    36     1    33    1
    37     1    34    1
    38     2    35    1
    39     3    36    1
    40     3    37    1
    41     3    38    1
    42     8    39    1
    43     9    40    1
    44    10    41    1
    45    10    42    1
    46    11    43    1
    47    11    44    1
    48    13    45    1
    49    13    46    1
    50    14    47    1
    51    14    48    1
    52    17    49    1
    53    18    50    1
    54    18    51    1
    55    20    52    1
    56    21    53    1
    57    23    54    1
    58    25    55    1
    59    25    56    1
    60    25    57    1
    61    27    58    1
    62    28    59    1
    63    31    60    1
