@<TRIPOS>MOLECULE
*****
 54 57 0 0 0
SMALL
GASTEIGER

@<TRIPOS>ATOM
      1 C           1.0855    0.0874    0.0491 C.3     1  UNL1       -0.0585
      2 C           0.5588   -0.4503   -1.2861 C.3     1  UNL1       -0.0165
      3 C           1.0709   -1.8719   -1.5161 C.3     1  UNL1       -0.0585
      4 C          -0.9307   -0.4363   -1.3208 C.ar    1  UNL1        0.0193
      5 C          -1.7749   -0.0992   -2.3586 C.ar    1  UNL1        0.1659
      6 N          -1.5902    0.3212   -3.6226 N.ar    1  UNL1       -0.1949
      7 C          -2.6283    0.6336   -4.3479 C.ar    1  UNL1        0.2204
      8 N          -2.4719    1.1340   -5.6118 N.pl3   1  UNL1       -0.3061
      9 C          -1.2001    1.3940   -6.2181 C.3     1  UNL1        0.0699
     10 C          -0.0648    1.9569   -5.3416 C.3     1  UNL1        0.0682
     11 O           0.8726    1.0098   -5.9390 O.3     1  UNL1       -0.3760
     12 C          -0.2551    0.1948   -6.3843 C.3     1  UNL1        0.0682
     13 N          -3.9337    0.4890   -3.9058 N.ar    1  UNL1       -0.1811
     14 C          -4.1524    0.0329   -2.6958 C.ar    1  UNL1        0.2214
     15 N          -5.4453   -0.1476   -2.2572 N.pl3   1  UNL1       -0.3092
     16 C          -5.8871   -0.5896   -0.9585 C.3     1  UNL1        0.0370
     17 C          -6.6224    0.4938   -0.2229 C.ar    1  UNL1       -0.0302
     18 C          -7.5931    0.0964    0.6867 C.ar    1  UNL1       -0.0553
     19 C          -8.2420    1.0367    1.4693 C.ar    1  UNL1       -0.0402
     20 C          -7.9492    2.3991    1.3920 C.ar    1  UNL1        0.0334
     21 N          -8.6316    3.3451    2.2038 N.am    1  UNL1       -0.2857
     22 C          -9.6255    3.0245    3.1168 C.2     1  UNL1        0.2141
     23 C         -10.2351    4.1628    3.8730 C.3     1  UNL1        0.0125
     24 O         -10.0624    1.8958    3.3696 O.2     1  UNL1       -0.2758
     25 C          -6.9541    2.8071    0.4941 C.ar    1  UNL1       -0.0402
     26 C          -6.2880    1.8550   -0.2995 C.ar    1  UNL1       -0.0553
     27 N          -3.0396   -0.2573   -1.8852 N.ar    1  UNL1       -0.1831
     28 N          -3.0781   -0.6992   -0.6134 N.ar    1  UNL1       -0.1702
     29 C          -1.8005   -0.8176   -0.2785 C.ar    1  UNL1        0.0554
     30 H           0.7590   -0.5360    0.8907 H       1  UNL1        0.0235
     31 H           0.7197    1.1038    0.2343 H       1  UNL1        0.0235
     32 H           2.1786    0.1066    0.0593 H       1  UNL1        0.0235
     33 H           0.9411    0.1959   -2.0866 H       1  UNL1        0.0345
     34 H           0.7192   -2.5509   -0.7298 H       1  UNL1        0.0235
     35 H           0.7129   -2.2666   -2.4737 H       1  UNL1        0.0235
     36 H           2.1641   -1.8954   -1.5213 H       1  UNL1        0.0235
     37 H          -3.3111    1.3337   -6.1389 H       1  UNL1        0.1494
     38 H          -1.3228    1.9563   -7.1529 H       1  UNL1        0.0544
     39 H           0.2088    2.9971   -5.5343 H       1  UNL1        0.0579
     40 H          -0.0850    1.8307   -4.2583 H       1  UNL1        0.0579
     41 H          -0.4066   -0.6701   -5.7311 H       1  UNL1        0.0579
     42 H          -0.1118   -0.1563   -7.4107 H       1  UNL1        0.0579
     43 H          -6.1780    0.1372   -2.8947 H       1  UNL1        0.1492
     44 H          -6.5238   -1.4709   -1.0970 H       1  UNL1        0.0512
     45 H          -5.1200   -0.9269   -0.2710 H       1  UNL1        0.0512
     46 H          -7.8484   -0.9515    0.8257 H       1  UNL1        0.0621
     47 H          -8.9792    0.6338    2.1478 H       1  UNL1        0.0636
     48 H          -8.3645    4.3171    2.0956 H       1  UNL1        0.1548
     49 H         -11.3112    4.1591    3.6676 H       1  UNL1        0.0323
     50 H         -10.0848    3.9713    4.9409 H       1  UNL1        0.0323
     51 H          -9.8165    5.1333    3.6123 H       1  UNL1        0.0323
     52 H          -6.6608    3.8492    0.3922 H       1  UNL1        0.0636
     53 H          -5.4905    2.1761   -0.9682 H       1  UNL1        0.0621
     54 H          -1.5509   -1.1767    0.7115 H       1  UNL1        0.0851
@<TRIPOS>BOND
     1     1     2    1
     2     2     3    1
     3     2     4    1
     4     4     5   ar
     5     5     6   ar
     6     6     7   ar
     7     7     8    1
     8     8     9    1
     9     9    10    1
    10    10    11    1
    11    11    12    1
    12     9    12    1
    13     7    13   ar
    14    13    14   ar
    15    14    15    1
    16    15    16    1
    17    16    17    1
    18    17    18   ar
    19    18    19   ar
    20    19    20   ar
    21    20    21    1
    22    21    22   am
    23    22    23    1
    24    22    24    2
    25    20    25   ar
    26    25    26   ar
    27    17    26   ar
    28    14    27   ar
    29     5    27   ar
    30    27    28   ar
    31    28    29   ar
    32     4    29   ar
    33     1    30    1
    34     1    31    1
    35     1    32    1
    36     2    33    1
    37     3    34    1
    38     3    35    1
    39     3    36    1
    40     8    37    1
    41     9    38    1
    42    10    39    1
    43    10    40    1
    44    12    41    1
    45    12    42    1
    46    15    43    1
    47    16    44    1
    48    16    45    1
    49    18    46    1
    50    19    47    1
    51    21    48    1
    52    23    49    1
    53    23    50    1
    54    23    51    1
    55    25    52    1
    56    26    53    1
    57    29    54    1
