@<TRIPOS>MOLECULE
*****
 59 61 0 0 0
SMALL
GASTEIGER

@<TRIPOS>ATOM
      1 C           1.1128    0.0693   -0.0612 C.3     1  UNL1       -0.0585
      2 C           0.5930   -0.0628   -1.4956 C.3     1  UNL1       -0.0165
      3 C           1.0964   -1.3639   -2.1208 C.3     1  UNL1       -0.0585
      4 C          -0.8935   -0.0254   -1.5309 C.ar    1  UNL1        0.0193
      5 C          -1.7235    0.6289   -2.4199 C.ar    1  UNL1        0.1659
      6 N          -1.5196    1.4316   -3.4890 N.ar    1  UNL1       -0.1949
      7 C          -2.5676    1.8992   -4.1157 C.ar    1  UNL1        0.2203
      8 N          -2.3998    2.7412   -5.1863 N.pl3   1  UNL1       -0.3083
      9 CA         -1.1029    3.1395   -5.7479 C.3     1  UNL1        0.0461
     10 C          -0.9484    2.6643   -7.2044 C.3     1  UNL1       -0.0352
     11 C          -1.9337    3.3081   -8.1744 C.3     1  UNL1       -0.0635
     12 C          -0.9184    4.6690   -5.6606 C.3     1  UNL1        0.0626
     13 O          -1.0722    5.1472   -4.3303 O.3     1  UNL1       -0.3932
     14 N          -3.8782    1.6065   -3.7566 N.ar    1  UNL1       -0.1811
     15 C          -4.1068    0.8178   -2.7316 C.ar    1  UNL1        0.2214
     16 N          -5.4040    0.5003   -2.3671 N.pl3   1  UNL1       -0.3092
     17 C          -5.8550   -0.2835   -1.2379 C.3     1  UNL1        0.0370
     18 C          -6.5985    0.5378   -0.2183 C.ar    1  UNL1       -0.0302
     19 C          -7.3942   -0.1524    0.6915 C.ar    1  UNL1       -0.0553
     20 C          -8.0318    0.5222    1.7215 C.ar    1  UNL1       -0.0402
     21 C          -7.9019    1.9001    1.8975 C.ar    1  UNL1        0.0334
     22 N          -8.5631    2.5741    2.9601 N.am    1  UNL1       -0.2857
     23 C          -9.3804    1.9570    3.8955 C.2     1  UNL1        0.2141
     24 C          -9.9971    2.8403    4.9346 C.3     1  UNL1        0.0125
     25 O          -9.6550    0.7530    3.9584 O.2     1  UNL1       -0.2758
     26 C          -7.0895    2.6018    0.9970 C.ar    1  UNL1       -0.0402
     27 C          -6.4353    1.9199   -0.0468 C.ar    1  UNL1       -0.0553
     28 N          -2.9939    0.3179   -2.0329 N.ar    1  UNL1       -0.1831
     29 N          -3.0432   -0.4890   -0.9539 N.ar    1  UNL1       -0.1702
     30 C          -1.7698   -0.6970   -0.6530 C.ar    1  UNL1        0.0554
     31 H           0.7826   -0.7683    0.5656 H       1  UNL1        0.0235
     32 H           0.7452    0.9907    0.4048 H       1  UNL1        0.0235
     33 H           2.2056    0.0839   -0.0432 H       1  UNL1        0.0235
     34 H           0.9816    0.7814   -2.0786 H       1  UNL1        0.0345
     35 H           0.7417   -2.2374   -1.5600 H       1  UNL1        0.0235
     36 H           0.7362   -1.4691   -3.1506 H       1  UNL1        0.0235
     37 H           2.1893   -1.3894   -2.1344 H       1  UNL1        0.0235
     38 H          -3.2444    3.0325   -5.6589 H       1  UNL1        0.1493
     39 HA         -0.2955    2.6809   -5.1636 H       1  UNL1        0.0521
     40 H           0.0697    2.8978   -7.5464 H       1  UNL1        0.0281
     41 H          -1.0513    1.5741   -7.2581 H       1  UNL1        0.0281
     42 H          -1.8106    4.3944   -8.2154 H       1  UNL1        0.0230
     43 H          -1.7749    2.9341   -9.1895 H       1  UNL1        0.0230
     44 H          -2.9656    3.0898   -7.8870 H       1  UNL1        0.0230
     45 H1          0.0822    4.9462   -6.0124 H       1  UNL1        0.0575
     46 H2         -1.6488    5.2056   -6.2711 H       1  UNL1        0.0575
     47 H          -1.9232    4.7854   -4.0210 H       1  UNL1        0.2095
     48 H          -6.1388    0.9498   -2.8978 H       1  UNL1        0.1492
     49 H          -6.4961   -1.0908   -1.6122 H       1  UNL1        0.0512
     50 H          -5.0856   -0.7992   -0.6736 H       1  UNL1        0.0512
     51 H          -7.5130   -1.2327    0.6393 H       1  UNL1        0.0621
     52 H          -8.6213   -0.0981    2.3810 H       1  UNL1        0.0636
     53 H          -8.4177    3.5754    3.0262 H       1  UNL1        0.1548
     54 H         -11.0847    2.7346    4.8575 H       1  UNL1        0.0323
     55 H          -9.6810    2.4711    5.9163 H       1  UNL1        0.0323
     56 H          -9.7240    3.8893    4.8329 H       1  UNL1        0.0323
     57 H          -6.9286    3.6738    1.0818 H       1  UNL1        0.0636
     58 H          -5.7772    2.4718   -0.7157 H       1  UNL1        0.0621
     59 H          -1.5291   -1.3307    0.1916 H       1  UNL1        0.0851
@<TRIPOS>BOND
     1     1     2    1
     2     2     3    1
     3     2     4    1
     4     4     5   ar
     5     5     6   ar
     6     6     7   ar
     7     7     8    1
     8     8     9    1
     9     9    10    1
    10    10    11    1
    11     9    12    1
    12    12    13    1
    13     7    14   ar
    14    14    15   ar
    15    15    16    1
    16    16    17    1
    17    17    18    1
    18    18    19   ar
    19    19    20   ar
    20    20    21   ar
    21    21    22    1
    22    22    23   am
    23    23    24    1
    24    23    25    2
    25    21    26   ar
    26    26    27   ar
    27    18    27   ar
    28    15    28   ar
    29     5    28   ar
    30    28    29   ar
    31    29    30   ar
    32     4    30   ar
    33     1    31    1
    34     1    32    1
    35     1    33    1
    36     2    34    1
    37     3    35    1
    38     3    36    1
    39     3    37    1
    40     8    38    1
    41     9    39    1
    42    10    40    1
    43    10    41    1
    44    11    42    1
    45    11    43    1
    46    11    44    1
    47    12    45    1
    48    12    46    1
    49    13    47    1
    50    16    48    1
    51    17    49    1
    52    17    50    1
    53    19    51    1
    54    20    52    1
    55    22    53    1
    56    24    54    1
    57    24    55    1
    58    24    56    1
    59    26    57    1
    60    27    58    1
    61    30    59    1
