@<TRIPOS>MOLECULE
*****
 59 61 0 0 0
SMALL
GASTEIGER

@<TRIPOS>ATOM
      1 C           1.6879   -7.4793    9.4891 C.3     1  UNL1       -0.0585
      2 C           0.4671   -6.6070    9.1782 C.3     1  UNL1       -0.0165
      3 C          -0.8101   -7.4413    9.2976 C.3     1  UNL1       -0.0585
      4 C           0.4042   -5.4291   10.0935 C.ar    1  UNL1        0.0193
      5 C           0.0871   -4.1176    9.8111 C.ar    1  UNL1        0.1659
      6 N          -0.2506   -3.4619    8.6941 N.ar    1  UNL1       -0.1949
      7 C          -0.5288   -2.1901    8.7377 C.ar    1  UNL1        0.2203
      8 N          -0.9112   -1.5588    7.5767 N.pl3   1  UNL1       -0.3083
      9 CA         -1.0754   -2.1698    6.2397 C.3     1  UNL1        0.0461
     10 C          -2.4934   -1.8603    5.6920 C.3     1  UNL1       -0.0352
     11 C          -3.5525   -2.8696    6.1360 C.3     1  UNL1       -0.0635
     12 C          -0.7838   -3.6930    6.1875 C.3     1  UNL1        0.0626
     13 O          -0.9014   -4.2637    4.8864 O.3     1  UNL1       -0.3932
     14 N          -0.4829   -1.4537    9.9150 N.ar    1  UNL1       -0.1811
     15 C          -0.1847   -2.0673   11.0424 C.ar    1  UNL1        0.2214
     16 N          -0.1949   -1.3699   12.2412 N.pl3   1  UNL1       -0.3092
     17 C           0.2083   -1.8342   13.5639 C.3     1  UNL1        0.0370
     18 C           1.4997   -1.2041   14.0171 C.ar    1  UNL1       -0.0302
     19 C           2.4472   -0.8592   13.0643 C.ar    1  UNL1       -0.0553
     20 C           3.6789   -0.3614   13.4396 C.ar    1  UNL1       -0.0402
     21 C           4.0435   -0.2003   14.7730 C.ar    1  UNL1        0.0334
     22 N           5.3233    0.3207   15.1107 N.am    1  UNL1       -0.2857
     23 C           6.2776    0.7114   14.1804 C.2     1  UNL1        0.2141
     24 C           7.5653    1.2480   14.7139 C.3     1  UNL1        0.0125
     25 O           6.1777    0.6671   12.9457 O.2     1  UNL1       -0.2758
     26 C           3.1125   -0.5760   15.7531 C.ar    1  UNL1       -0.0402
     27 C           1.8487   -1.0834   15.3736 C.ar    1  UNL1       -0.0553
     28 N           0.1270   -3.4415   10.9881 N.ar    1  UNL1       -0.1831
     29 N           0.4682   -4.2262   12.0302 N.ar    1  UNL1       -0.1702
     30 C           0.6353   -5.4249   11.4841 C.ar    1  UNL1        0.0554
     31 H           1.6396   -7.8885   10.5057 H       1  UNL1        0.0235
     32 H           2.6133   -6.8975    9.4135 H       1  UNL1        0.0235
     33 H           1.7535   -8.3243    8.7980 H       1  UNL1        0.0235
     34 H           0.5564   -6.2542    8.1425 H       1  UNL1        0.0345
     35 H          -0.9382   -7.8264   10.3165 H       1  UNL1        0.0235
     36 H          -1.6958   -6.8417    9.0596 H       1  UNL1        0.0235
     37 H          -0.7828   -8.2963    8.6151 H       1  UNL1        0.0235
     38 H          -1.0382   -0.5559    7.6407 H       1  UNL1        0.1493
     39 HA         -0.3636   -1.6775    5.5615 H       1  UNL1        0.0521
     40 H          -2.8125   -0.8549    5.9941 H       1  UNL1        0.0281
     41 H          -2.4616   -1.8521    4.5935 H       1  UNL1        0.0281
     42 H          -3.5844   -2.9343    7.2264 H       1  UNL1        0.0230
     43 H          -4.5408   -2.5979    5.7590 H       1  UNL1        0.0230
     44 H          -3.3591   -3.8761    5.7535 H       1  UNL1        0.0230
     45 H1          0.2429   -3.8926    6.5019 H       1  UNL1        0.0575
     46 H2         -1.4643   -4.2334    6.8597 H       1  UNL1        0.0575
     47 H          -1.8236   -4.1828    4.5995 H       1  UNL1        0.2095
     48 H          -0.2933   -0.3657   12.1468 H       1  UNL1        0.1492
     49 H          -0.6024   -1.6162   14.2632 H       1  UNL1        0.0512
     50 H           0.3740   -2.9015   13.6495 H       1  UNL1        0.0512
     51 H           2.2663   -0.9847   12.0011 H       1  UNL1        0.0621
     52 H           4.3298   -0.1241   12.6128 H       1  UNL1        0.0636
     53 H           5.5375    0.4128   16.0973 H       1  UNL1        0.1548
     54 H           8.3732    0.6190   14.3239 H       1  UNL1        0.0323
     55 H           7.6917    2.2604   14.3141 H       1  UNL1        0.0323
     56 H           7.6085    1.2731   15.8006 H       1  UNL1        0.0323
     57 H           3.3374   -0.4997   16.8150 H       1  UNL1        0.0636
     58 H           1.1454   -1.4064   16.1414 H       1  UNL1        0.0621
     59 H           0.9138   -6.2549   12.1195 H       1  UNL1        0.0851
@<TRIPOS>BOND
     1     1     2    1
     2     2     3    1
     3     2     4    1
     4     4     5   ar
     5     5     6   ar
     6     6     7   ar
     7     7     8    1
     8    10    11    1
     9     9    12    1
    10    12    13    1
    11     7    14   ar
    12    14    15   ar
    13    15    16    1
    14    16    17    1
    15    17    18    1
    16    18    19   ar
    17    19    20   ar
    18    20    21   ar
    19    21    22    1
    20    22    23   am
    21    23    24    1
    22    23    25    2
    23    21    26   ar
    24    26    27   ar
    25    18    27   ar
    26    15    28   ar
    27     5    28   ar
    28    28    29   ar
    29    29    30   ar
    30     4    30   ar
    31     1    31    1
    32     1    32    1
    33     1    33    1
    34     2    34    1
    35     3    35    1
    36     3    36    1
    37     3    37    1
    38     8    38    1
    39     9    39    1
    40    10    40    1
    41    10    41    1
    42    11    42    1
    43    11    43    1
    44    11    44    1
    45    12    45    1
    46    12    46    1
    47    13    47    1
    48    16    48    1
    49    17    49    1
    50    17    50    1
    51    19    51    1
    52    20    52    1
    53    22    53    1
    54    24    54    1
    55    24    55    1
    56    24    56    1
    57    26    57    1
    58    27    58    1
    59    30    59    1
    60     9    10    1
    61     9     8    1
