@<TRIPOS>MOLECULE
*****
 57 59 0 0 0
SMALL
GASTEIGER

@<TRIPOS>ATOM
      1 C           0.9901    0.0029   -0.0713 C.3     0  UNK0       -0.0585
      2 C           0.4714    0.5016   -1.4234 C.3     0  UNK0       -0.0165
      3 C           0.9738   -0.4055   -2.5468 C.3     0  UNK0       -0.0585
      4 C          -1.0153    0.5535   -1.4401 C.ar    0  UNK0        0.0193
      5 C          -1.8457    1.5252   -1.9649 C.ar    0  UNK0        0.1659
      6 N          -1.6446    2.7053   -2.5959 N.ar    0  UNK0       -0.1949
      7 C          -2.6944    3.3952   -2.9593 C.ar    0  UNK0        0.2204
      8 N          -2.5283    4.6070   -3.5819 N.pl3   1  SER1       -0.3061
      9 CA         -1.2205    5.2058   -3.9007 C.3     1  SER1        0.0694
     10 CB         -1.0546    5.3934   -5.4184 C.3     1  SER1        0.0647
     11 OG         -1.9915    6.3372   -5.9393 O.3     1  SER1       -0.3931
     12 C          -1.0553    6.5653   -3.1959 C.3     1  SER1        0.0647
     13 O          -1.2136    6.4496   -1.7847 O.3     1  SER1       -0.3931
     14 N          -4.0032    2.9805   -2.7518 N.ar    0  UNK0       -0.1811
     15 C          -4.2295    1.8312   -2.1571 C.ar    0  UNK0        0.2214
     16 N          -5.5262    1.3915   -1.9619 N.pl3   0  UNK0       -0.3092
     17 C          -5.9809    0.1974   -1.2864 C.3     0  UNK0        0.0370
     18 C          -6.7481    0.4834   -0.0229 C.ar    0  UNK0       -0.0302
     19 C          -7.2607   -0.6239    0.6493 C.ar    0  UNK0       -0.0553
     20 C          -7.9580   -0.4688    1.8360 C.ar    0  UNK0       -0.0402
     21 C          -8.1729    0.7842    2.4080 C.ar    0  UNK0        0.0334
     22 N          -8.9008    0.9243    3.6206 N.am    0  UNK0       -0.2857
     23 C          -9.4559   -0.1306    4.3304 C.2     0  UNK0        0.2141
     24 C         -10.1944    0.2192    5.5841 C.3     0  UNK0        0.0125
     25 O          -9.4061   -1.3300    4.0343 O.2     0  UNK0       -0.2758
     26 C          -7.6437    1.9040    1.7514 C.ar    0  UNK0       -0.0402
     27 C          -6.9287    1.7502    0.5473 C.ar    0  UNK0       -0.0553
     28 N          -3.1159    1.0801   -1.7413 N.ar    0  UNK0       -0.1831
     29 N          -3.1641   -0.1144   -1.1185 N.ar    0  UNK0       -0.1702
     30 C          -1.8910   -0.4303   -0.9345 C.ar    0  UNK0        0.0554
     31 H           0.6596   -1.0228    0.1341 H       0  UNK0        0.0235
     32 H           0.6224    0.6341    0.7458 H       0  UNK0        0.0235
     33 H           2.0829    0.0079   -0.0481 H       0  UNK0        0.0235
     34 H           0.8613    1.5138   -1.5866 H       0  UNK0        0.0345
     35 H           0.6186   -1.4351   -2.4154 H       0  UNK0        0.0235
     36 H           0.6137   -0.0582   -3.5219 H       0  UNK0        0.0235
     37 H           2.0667   -0.4235   -2.5701 H       0  UNK0        0.0235
     38 H          -3.3708    5.1126   -3.8164 H       1  SER1        0.1494
     39 HA         -0.4166    4.5468   -3.5539 H       1  SER1        0.0544
     40 HB1        -0.0525    5.7796   -5.6392 H       1  SER1        0.0576
     41 HB2        -1.1769    4.4503   -5.9597 H       1  SER1        0.0576
     42 H          -2.8772    5.9581   -5.8118 H       1  SER1        0.2095
     43 H1         -0.0525    6.9651   -3.3869 H       1  SER1        0.0576
     44 H2         -1.7822    7.3020   -3.5518 H       1  SER1        0.0576
     45 H          -2.0568    5.9819   -1.6454 H       1  SER1        0.2095
     46 H          -6.2599    2.0098   -2.2810 H       0  UNK0        0.1492
     47 H          -6.6115   -0.3780   -1.9743 H       0  UNK0        0.0512
     48 H          -5.2041   -0.5002   -0.9926 H       0  UNK0        0.0512
     49 H          -7.1110   -1.6349    0.2749 H       0  UNK0        0.0621
     50 H          -8.3139   -1.3862    2.2817 H       0  UNK0        0.0636
     51 H          -9.0163    1.8659    3.9782 H       0  UNK0        0.1548
     52 H         -11.2202   -0.1506    5.4792 H       0  UNK0        0.0323
     53 H          -9.7157   -0.3146    6.4122 H       0  UNK0        0.0323
     54 H         -10.2105    1.2867    5.7968 H       0  UNK0        0.0323
     55 H          -7.7597    2.9100    2.1474 H       0  UNK0        0.0636
     56 H          -6.4997    2.6276    0.0675 H       0  UNK0        0.0621
     57 H          -1.6501   -1.3651   -0.4434 H       0  UNK0        0.0851
@<TRIPOS>BOND
     1     1     2    1
     2     2     3    1
     3     2     4    1
     4     4     5   ar
     5     5     6   ar
     6     6     7   ar
     7     7     8    1
     8     8     9    1
     9     9    10    1
    10    10    11    1
    11     9    12    1
    12    12    13    1
    13     7    14   ar
    14    14    15   ar
    15    15    16    1
    16    16    17    1
    17    17    18    1
    18    18    19   ar
    19    19    20   ar
    20    20    21   ar
    21    21    22    1
    22    22    23   am
    23    23    24    1
    24    23    25    2
    25    21    26   ar
    26    26    27   ar
    27    18    27   ar
    28    15    28   ar
    29     5    28   ar
    30    28    29   ar
    31    29    30   ar
    32     4    30   ar
    33     1    31    1
    34     1    32    1
    35     1    33    1
    36     2    34    1
    37     3    35    1
    38     3    36    1
    39     3    37    1
    40     8    38    1
    41     9    39    1
    42    10    40    1
    43    10    41    1
    44    11    42    1
    45    12    43    1
    46    12    44    1
    47    13    45    1
    48    16    46    1
    49    17    47    1
    50    17    48    1
    51    19    49    1
    52    20    50    1
    53    22    51    1
    54    24    52    1
    55    24    53    1
    56    24    54    1
    57    26    55    1
    58    27    56    1
    59    30    57    1
