@<TRIPOS>MOLECULE
*****
 60 63 0 0 0
SMALL
GASTEIGER

@<TRIPOS>ATOM
      1 C           0.9830   -0.0280    0.1063 C.3     1  UNL1       -0.0585
      2 C           0.4705    1.0687    1.0506 C.3     1  UNL1       -0.0165
      3 C           0.9726    2.4333    0.5775 C.3     1  UNL1       -0.0585
      4 C          -1.0177    1.0735    1.1288 C.ar    1  UNL1        0.0193
      5 C          -1.8480    1.2588    2.2271 C.ar    1  UNL1        0.1659
      6 N          -1.6617    1.4872    3.5609 N.ar    1  UNL1       -0.1947
      7 C          -2.7242    1.5353    4.3347 C.ar    1  UNL1        0.2230
      8 N          -2.5858    1.7412    5.7015 N.pl3   1  UNL1       -0.2943
      9 C          -3.1095    0.8405    6.7159 C.3     1  UNL1        0.0153
     10 C          -3.4865    1.7810    7.8500 C.3     1  UNL1       -0.0354
     11 C          -2.3557    2.7982    7.8380 C.3     1  UNL1       -0.0307
     12 C          -1.9021    2.8730    6.3508 C.3     1  UNL1        0.0493
     13 C          -2.2762    4.2309    5.7430 C.3     1  UNL1        0.0628
     14 O          -1.6216    5.3148    6.4094 O.3     1  UNL1       -0.3932
     15 N          -4.0276    1.4196    3.8411 N.ar    1  UNL1       -0.1809
     16 C          -4.2415    1.2739    2.5536 C.ar    1  UNL1        0.2214
     17 N          -5.5364    1.2268    2.0480 N.pl3   1  UNL1       -0.3092
     18 C          -5.9934    1.0651    0.6759 C.3     1  UNL1        0.0370
     19 C          -6.7563   -0.2235    0.5171 C.ar    1  UNL1       -0.0302
     20 C          -6.0528   -1.4181    0.6293 C.ar    1  UNL1       -0.0553
     21 C          -6.6974   -2.6335    0.4612 C.ar    1  UNL1       -0.0402
     22 C          -8.0592   -2.7179    0.1726 C.ar    1  UNL1        0.0334
     23 N          -8.7010   -3.9804    0.0261 N.am    1  UNL1       -0.2857
     24 C          -8.0634   -5.2064    0.1607 C.2     1  UNL1        0.2141
     25 C          -8.9068   -6.4301   -0.0169 C.3     1  UNL1        0.0125
     26 O          -6.8673   -5.3963    0.4136 O.2     1  UNL1       -0.2758
     27 C          -8.7723   -1.5169    0.0321 C.ar    1  UNL1       -0.0402
     28 C          -8.1198   -0.2762    0.1990 C.ar    1  UNL1       -0.0553
     29 N          -3.1169    1.1726    1.7214 N.ar    1  UNL1       -0.1831
     30 N          -3.1643    0.9780    0.3868 N.ar    1  UNL1       -0.1702
     31 C          -1.8918    0.9224    0.0282 C.ar    1  UNL1        0.0554
     32 H           0.6525    0.1364   -0.9274 H       1  UNL1        0.0235
     33 H           0.6169   -1.0146    0.4121 H       1  UNL1        0.0235
     34 H           2.0764   -0.0536    0.0979 H       1  UNL1        0.0235
     35 H           0.8704    0.8689    2.0512 H       1  UNL1        0.0345
     36 H           0.6155    2.6615   -0.4347 H       1  UNL1        0.0235
     37 H           0.6151    3.2313    1.2375 H       1  UNL1        0.0235
     38 H           2.0657    2.4598    0.5646 H       1  UNL1        0.0235
     39 H          -2.3116    0.1664    7.0575 H       1  UNL1        0.0465
     40 H          -3.9571    0.2379    6.3840 H       1  UNL1        0.0465
     41 H          -4.4377    2.2787    7.6265 H       1  UNL1        0.0281
     42 H          -3.5831    1.2811    8.8189 H       1  UNL1        0.0281
     43 H          -2.7019    3.7484    8.2591 H       1  UNL1        0.0284
     44 H          -1.5281    2.4564    8.4715 H       1  UNL1        0.0284
     45 H          -0.8121    2.7481    6.3247 H       1  UNL1        0.0523
     46 H          -1.9689    4.2714    4.6949 H       1  UNL1        0.0576
     47 H          -3.3581    4.3994    5.7833 H       1  UNL1        0.0576
     48 H          -1.9576    5.3705    7.3194 H       1  UNL1        0.2095
     49 H          -6.2702    1.2738    2.7427 H       1  UNL1        0.1492
     50 H          -6.6084    1.9231    0.3884 H       1  UNL1        0.0512
     51 H          -5.2207    1.0353   -0.0876 H       1  UNL1        0.0512
     52 H          -4.9850   -1.4269    0.8370 H       1  UNL1        0.0621
     53 H          -6.0653   -3.5026    0.5692 H       1  UNL1        0.0636
     54 H          -9.6937   -3.9695   -0.1793 H       1  UNL1        0.1548
     55 H          -8.4740   -7.0168   -0.8348 H       1  UNL1        0.0323
     56 H          -8.8370   -7.0189    0.9046 H       1  UNL1        0.0323
     57 H          -9.9509   -6.2130   -0.2341 H       1  UNL1        0.0323
     58 H          -9.8329   -1.5070   -0.2091 H       1  UNL1        0.0636
     59 H          -8.6754    0.6508    0.0669 H       1  UNL1        0.0621
     60 H          -1.6508    0.7749   -1.0187 H       1  UNL1        0.0851
@<TRIPOS>BOND
     1     1     2    1
     2     2     3    1
     3     2     4    1
     4     4     5   ar
     5     5     6   ar
     6     6     7   ar
     7     7     8    1
     8     8     9    1
     9     9    10    1
    10    10    11    1
    11    11    12    1
    12     8    12    1
    13    12    13    1
    14    13    14    1
    15     7    15   ar
    16    15    16   ar
    17    16    17    1
    18    17    18    1
    19    18    19    1
    20    19    20   ar
    21    20    21   ar
    22    21    22   ar
    23    22    23    1
    24    23    24   am
    25    24    25    1
    26    24    26    2
    27    22    27   ar
    28    27    28   ar
    29    19    28   ar
    30    16    29   ar
    31     5    29   ar
    32    29    30   ar
    33    30    31   ar
    34     4    31   ar
    35     1    32    1
    36     1    33    1
    37     1    34    1
    38     2    35    1
    39     3    36    1
    40     3    37    1
    41     3    38    1
    42     9    39    1
    43     9    40    1
    44    10    41    1
    45    10    42    1
    46    11    43    1
    47    11    44    1
    48    12    45    1
    49    13    46    1
    50    13    47    1
    51    14    48    1
    52    17    49    1
    53    18    50    1
    54    18    51    1
    55    20    52    1
    56    21    53    1
    57    23    54    1
    58    25    55    1
    59    25    56    1
    60    25    57    1
    61    27    58    1
    62    28    59    1
    63    31    60    1
