@<TRIPOS>MOLECULE
*****
 60 63 0 0 0
SMALL
GASTEIGER

@<TRIPOS>ATOM
      1 C           1.0725    0.0399    0.0850 C.3     1  UNL1       -0.0585
      2 C           0.5577    0.4771    1.4627 C.3     1  UNL1       -0.0165
      3 C           1.0603    1.8860    1.7807 C.3     1  UNL1       -0.0585
      4 C          -0.9305    0.4438    1.5243 C.ar    1  UNL1        0.0193
      5 C          -1.7638    0.0249    2.5514 C.ar    1  UNL1        0.1659
      6 N          -1.5755   -0.4889    3.7997 N.ar    1  UNL1       -0.1947
      7 C          -2.6424   -0.8401    4.4861 C.ar    1  UNL1        0.2227
      8 N          -2.4715   -1.3980    5.7470 N.pl3   1  UNL1       -0.2971
      9 C          -1.7558   -0.7090    6.8275 C.3     1  UNL1        0.0409
     10 C          -0.5204   -1.5157    7.2953 C.3     1  UNL1        0.0710
     11 O           0.6845   -1.0265    6.7118 O.3     1  UNL1       -0.3902
     12 C          -0.6604   -3.0075    6.9797 C.3     1  UNL1       -0.0240
     13 C          -2.1186   -3.4201    7.1469 C.3     1  UNL1       -0.0348
     14 C          -3.0011   -2.7212    6.0886 C.3     1  UNL1        0.0150
     15 N          -3.9468   -0.6652    4.0162 N.ar    1  UNL1       -0.1809
     16 C          -4.1588   -0.0915    2.8533 C.ar    1  UNL1        0.2214
     17 N          -5.4536    0.1813    2.4174 N.pl3   1  UNL1       -0.3092
     18 C          -5.9133    0.6962    1.1259 C.3     1  UNL1        0.0370
     19 C          -6.6463   -0.3546    0.3259 C.ar    1  UNL1       -0.0302
     20 C          -6.2502   -1.6772    0.4574 C.ar    1  UNL1       -0.0553
     21 C          -6.8218   -2.6701   -0.3134 C.ar    1  UNL1       -0.0402
     22 C          -7.7987   -2.4055   -1.2682 C.ar    1  UNL1        0.0334
     23 N          -8.3595   -3.4644   -2.0360 N.am    1  UNL1       -0.2857
     24 C          -8.0065   -4.8015   -1.8968 C.2     1  UNL1        0.2141
     25 C          -8.7069   -5.7828   -2.7799 C.3     1  UNL1        0.0125
     26 O          -7.1723   -5.2745   -1.1147 O.2     1  UNL1       -0.2758
     27 C          -8.1919   -1.0698   -1.4424 C.ar    1  UNL1       -0.0402
     28 C          -7.6106   -0.0486   -0.6522 C.ar    1  UNL1       -0.0553
     29 N          -3.0327    0.2373    2.0837 N.ar    1  UNL1       -0.1831
     30 N          -3.0765    0.7722    0.8466 N.ar    1  UNL1       -0.1702
     31 C          -1.8029    0.8980    0.5097 C.ar    1  UNL1        0.0554
     32 H           0.7424    0.7228   -0.7081 H       1  UNL1        0.0235
     33 H           0.7060   -0.9602   -0.1728 H       1  UNL1        0.0235
     34 H           2.1658    0.0223    0.0661 H       1  UNL1        0.0235
     35 H           0.9545   -0.2190    2.2108 H       1  UNL1        0.0345
     36 H           0.7037    2.6135    1.0406 H       1  UNL1        0.0235
     37 H           0.7020    2.2167    2.7619 H       1  UNL1        0.0235
     38 H           2.1533    1.9154    1.7849 H       1  UNL1        0.0235
     39 H          -2.4490   -0.6334    7.6775 H       1  UNL1        0.0490
     40 H          -1.4802    0.3136    6.5518 H       1  UNL1        0.0490
     41 H          -0.4116   -1.3858    8.3805 H       1  UNL1        0.0609
     42 H           0.5592   -1.0610    5.7447 H       1  UNL1        0.2098
     43 H          -0.3293   -3.2104    5.9528 H       1  UNL1        0.0291
     44 H           0.0017   -3.5940    7.6281 H       1  UNL1        0.0291
     45 H          -2.2235   -4.5083    7.0765 H       1  UNL1        0.0281
     46 H          -2.4542   -3.1431    8.1563 H       1  UNL1        0.0281
     47 H          -3.0237   -3.3528    5.1932 H       1  UNL1        0.0464
     48 H          -4.0259   -2.6391    6.4668 H       1  UNL1        0.0464
     49 H          -6.1855   -0.1897    3.0116 H       1  UNL1        0.1492
     50 H          -6.5587    1.5603    1.3078 H       1  UNL1        0.0512
     51 H          -5.1334    1.0587    0.4648 H       1  UNL1        0.0512
     52 H          -5.4693   -1.9738    1.1508 H       1  UNL1        0.0621
     53 H          -6.4346   -3.6576   -0.1178 H       1  UNL1        0.0636
     54 H          -9.0644   -3.2148   -2.7203 H       1  UNL1        0.1548
     55 H          -7.9425   -6.3066   -3.3644 H       1  UNL1        0.0323
     56 H          -9.2060   -6.5119   -2.1318 H       1  UNL1        0.0323
     57 H          -9.4336   -5.3257   -3.4478 H       1  UNL1        0.0323
     58 H          -8.9342   -0.7862   -2.1863 H       1  UNL1        0.0636
     59 H          -7.8996    0.9889   -0.8215 H       1  UNL1        0.0621
     60 H          -1.5595    1.3201   -0.4584 H       1  UNL1        0.0851
@<TRIPOS>BOND
     1     1     2    1
     2     2     3    1
     3     2     4    1
     4     4     5   ar
     5     5     6   ar
     6     6     7   ar
     7     7     8    1
     8     8     9    1
     9     9    10    1
    10    10    11    1
    11    10    12    1
    12    12    13    1
    13    13    14    1
    14     8    14    1
    15     7    15   ar
    16    15    16   ar
    17    16    17    1
    18    17    18    1
    19    18    19    1
    20    19    20   ar
    21    20    21   ar
    22    21    22   ar
    23    22    23    1
    24    23    24   am
    25    24    25    1
    26    24    26    2
    27    22    27   ar
    28    27    28   ar
    29    19    28   ar
    30    16    29   ar
    31     5    29   ar
    32    29    30   ar
    33    30    31   ar
    34     4    31   ar
    35     1    32    1
    36     1    33    1
    37     1    34    1
    38     2    35    1
    39     3    36    1
    40     3    37    1
    41     3    38    1
    42     9    39    1
    43     9    40    1
    44    10    41    1
    45    11    42    1
    46    12    43    1
    47    12    44    1
    48    13    45    1
    49    13    46    1
    50    14    47    1
    51    14    48    1
    52    17    49    1
    53    18    50    1
    54    18    51    1
    55    20    52    1
    56    21    53    1
    57    23    54    1
    58    25    55    1
    59    25    56    1
    60    25    57    1
    61    27    58    1
    62    28    59    1
    63    31    60    1
