@<TRIPOS>MOLECULE
*****
 60 63 0 0 0
SMALL
GASTEIGER

@<TRIPOS>ATOM
      1 C           0.9860    0.0412    0.0301 C.3     1  UNL1       -0.0585
      2 C           0.4776   -0.9314    1.1016 C.3     1  UNL1       -0.0165
      3 C           0.9740   -0.4995    2.4808 C.3     1  UNL1       -0.0585
      4 C          -1.0064   -1.0027    1.1054 C.ar    1  UNL1        0.0193
      5 C          -1.8355   -2.1048    1.2626 C.ar    1  UNL1        0.1659
      6 N          -1.6526   -3.4506    1.4431 N.ar    1  UNL1       -0.1947
      7 C          -2.7249   -4.2077    1.4909 C.ar    1  UNL1        0.2227
      8 N          -2.6649   -5.6026    1.5657 N.pl3   1  UNL1       -0.2971
      9 C          -1.5760   -6.3656    2.2128 C.3     1  UNL1        0.0409
     10 C          -2.1574   -7.7085    2.7561 C.3     1  UNL1        0.0710
     11 O          -3.1111   -7.4622    3.7959 O.3     1  UNL1       -0.3902
     12 C          -2.8529   -8.5076    1.6471 C.3     1  UNL1       -0.0240
     13 C          -3.8682   -7.6388    0.9034 C.3     1  UNL1       -0.0348
     14 C          -3.2447   -6.3310    0.4294 C.3     1  UNL1        0.0150
     15 N          -4.0218   -3.6879    1.4359 N.ar    1  UNL1       -0.1809
     16 C          -4.2242   -2.4023    1.3044 C.ar    1  UNL1        0.2214
     17 N          -5.5097   -1.8903    1.2959 N.pl3   1  UNL1       -0.3092
     18 C          -5.9701   -0.5191    1.0989 C.3     1  UNL1        0.0370
     19 C          -6.7328   -0.3367   -0.1925 C.ar    1  UNL1       -0.0302
     20 C          -7.2460   -1.4382   -0.8562 C.ar    1  UNL1       -0.0553
     21 C          -7.9563   -1.2878   -2.0307 C.ar    1  UNL1       -0.0402
     22 C          -8.2063   -0.0444   -2.6037 C.ar    1  UNL1        0.0334
     23 N          -8.9515    0.0533   -3.8108 N.am    1  UNL1       -0.2857
     24 C          -9.4766   -1.0367   -4.4934 C.2     1  UNL1        0.2141
     25 C         -10.2391   -0.7476   -5.7447 C.3     1  UNL1        0.0125
     26 O          -9.3841   -2.2302   -4.1772 O.2     1  UNL1       -0.2758
     27 C          -7.7000    1.0866   -1.9495 C.ar    1  UNL1       -0.0402
     28 C          -6.9682    0.9378   -0.7486 C.ar    1  UNL1       -0.0553
     29 N          -3.0997   -1.5850    1.1931 N.ar    1  UNL1       -0.1831
     30 N          -3.1455   -0.2478    1.0331 N.ar    1  UNL1       -0.1702
     31 C          -1.8740    0.1071    0.9871 C.ar    1  UNL1        0.0554
     32 H           0.6536    1.0694    0.2223 H       1  UNL1        0.0235
     33 H           0.6157   -0.2392   -0.9628 H       1  UNL1        0.0235
     34 H           2.0786    0.0501    0.0024 H       1  UNL1        0.0235
     35 H           0.8725   -1.9278    0.8739 H       1  UNL1        0.0345
     36 H           0.6142    0.5048    2.7381 H       1  UNL1        0.0235
     37 H           0.6120   -1.1831    3.2570 H       1  UNL1        0.0235
     38 H           2.0663   -0.4883    2.5112 H       1  UNL1        0.0235
     39 H          -1.1341   -5.8055    3.0438 H       1  UNL1        0.0490
     40 H          -0.7825   -6.5967    1.4893 H       1  UNL1        0.0490
     41 H          -1.3640   -8.3225    3.1981 H       1  UNL1        0.0609
     42 H          -3.7522   -6.8214    3.4331 H       1  UNL1        0.2098
     43 H          -2.1053   -8.8860    0.9395 H       1  UNL1        0.0291
     44 H          -3.3759   -9.3767    2.0668 H       1  UNL1        0.0291
     45 H          -4.2678   -8.1885    0.0451 H       1  UNL1        0.0281
     46 H          -4.7155   -7.4186    1.5639 H       1  UNL1        0.0281
     47 H          -2.4596   -6.5327   -0.3111 H       1  UNL1        0.0464
     48 H          -4.0127   -5.7354   -0.0729 H       1  UNL1        0.0464
     49 H          -6.2360   -2.5879    1.3964 H       1  UNL1        0.1492
     50 H          -6.6205   -0.2511    1.9376 H       1  UNL1        0.0512
     51 H          -5.1883    0.2297    1.0969 H       1  UNL1        0.0512
     52 H          -7.0993   -2.4524   -0.5038 H       1  UNL1        0.0621
     53 H          -8.2920   -2.2173   -2.4619 H       1  UNL1        0.0636
     54 H          -9.1043    0.9834   -4.1839 H       1  UNL1        0.1548
     55 H          -9.7475   -1.2855   -6.5627 H       1  UNL1        0.0323
     56 H         -11.2477   -1.1564   -5.6179 H       1  UNL1        0.0323
     57 H         -10.2979    0.3123   -5.9822 H       1  UNL1        0.0323
     58 H          -7.8493    2.0909   -2.3416 H       1  UNL1        0.0636
     59 H          -6.5683    1.8239   -0.2536 H       1  UNL1        0.0621
     60 H          -1.6344    1.1575    0.8707 H       1  UNL1        0.0851
@<TRIPOS>BOND
     1     1     2    1
     2     2     3    1
     3     2     4    1
     4     4     5   ar
     5     5     6   ar
     6     6     7   ar
     7     7     8    1
     8     8     9    1
     9     9    10    1
    10    10    11    1
    11    10    12    1
    12    12    13    1
    13    13    14    1
    14     8    14    1
    15     7    15   ar
    16    15    16   ar
    17    16    17    1
    18    17    18    1
    19    18    19    1
    20    19    20   ar
    21    20    21   ar
    22    21    22   ar
    23    22    23    1
    24    23    24   am
    25    24    25    1
    26    24    26    2
    27    22    27   ar
    28    27    28   ar
    29    19    28   ar
    30    16    29   ar
    31     5    29   ar
    32    29    30   ar
    33    30    31   ar
    34     4    31   ar
    35     1    32    1
    36     1    33    1
    37     1    34    1
    38     2    35    1
    39     3    36    1
    40     3    37    1
    41     3    38    1
    42     9    39    1
    43     9    40    1
    44    10    41    1
    45    11    42    1
    46    12    43    1
    47    12    44    1
    48    13    45    1
    49    13    46    1
    50    14    47    1
    51    14    48    1
    52    17    49    1
    53    18    50    1
    54    18    51    1
    55    20    52    1
    56    21    53    1
    57    23    54    1
    58    25    55    1
    59    25    56    1
    60    25    57    1
    61    27    58    1
    62    28    59    1
    63    31    60    1
