@<TRIPOS>MOLECULE
*****
 61 64 0 0 0
SMALL
GASTEIGER

@<TRIPOS>ATOM
      1 C           1.0575    0.0695    0.0672 C.3     1  UNL1       -0.0585
      2 C           0.4642    1.4672    0.1724 C.3     1  UNL1       -0.0165
      3 C           0.9921    2.3217   -0.9834 C.3     1  UNL1       -0.0585
      4 C          -1.0314    1.4673    0.1887 C.ar    1  UNL1        0.0192
      5 C          -1.9309    0.4151    0.1774 C.ar    1  UNL1        0.1629
      6 N          -1.7417   -0.9251    0.1757 N.ar    1  UNL1       -0.2129
      7 C          -2.7701   -1.7304    0.1863 C.ar    1  UNL1        0.1246
      8 N          -2.5339   -3.0924    0.2533 N.pl3   1  UNL1       -0.3259
      9 C          -1.1944   -3.6748    0.3941 C.3     1  UNL1        0.0261
     10 C          -0.5039   -3.1905    1.6742 C.3     1  UNL1       -0.0109
     11 C           0.9659   -3.5683    1.6978 C.3     1  UNL1        0.0493
     12 O           1.6303   -3.1822    0.4980 O.3     1  UNL1       -0.3796
     13 C           1.0849   -3.8100   -0.6580 C.3     1  UNL1        0.0493
     14 C          -0.3653   -3.4201   -0.8665 C.3     1  UNL1       -0.0109
     15 C          -4.1748   -1.2114    0.1425 C.ar    1  UNL1        0.0180
     16 C          -4.3601    0.1261    0.1621 C.ar    1  UNL1        0.1260
     17 N          -5.6345    0.6862    0.1727 N.pl3   1  UNL1       -0.3248
     18 C          -5.9919    2.0909    0.1556 C.3     1  UNL1        0.0357
     19 C          -6.6840    2.4889   -1.1180 C.ar    1  UNL1       -0.0302
     20 C          -6.6568    3.8369   -1.4690 C.ar    1  UNL1       -0.0553
     21 C          -7.4157    4.2981   -2.5335 C.ar    1  UNL1       -0.0402
     22 C          -8.1213    3.4271   -3.3634 C.ar    1  UNL1        0.0334
     23 N          -8.7787    3.8875   -4.5351 N.am    1  UNL1       -0.2857
     24 C          -8.7530    5.1971   -4.9878 C.2     1  UNL1        0.2141
     25 C          -9.4559    5.4723   -6.2813 C.3     1  UNL1        0.0125
     26 O          -8.2109    6.1600   -4.4323 O.2     1  UNL1       -0.2758
     27 C          -8.1340    2.0670   -3.0322 C.ar    1  UNL1       -0.0402
     28 C          -7.4284    1.6070   -1.9095 C.ar    1  UNL1       -0.0553
     29 N          -3.2061    0.9618    0.1813 N.ar    1  UNL1       -0.2003
     30 N          -3.1317    2.3210    0.2119 N.ar    1  UNL1       -0.1714
     31 C          -1.8428    2.6094    0.2146 C.ar    1  UNL1        0.0554
     32 H           0.7289   -0.4185   -0.8565 H       1  UNL1        0.0235
     33 H           0.7439   -0.5400    0.9177 H       1  UNL1        0.0235
     34 H           2.1492    0.0909    0.0664 H       1  UNL1        0.0235
     35 H           0.8069    1.9121    1.1166 H       1  UNL1        0.0345
     36 H           0.6432    1.9324   -1.9469 H       1  UNL1        0.0235
     37 H           0.6499    3.3596   -0.9040 H       1  UNL1        0.0235
     38 H           2.0857    2.3333   -0.9904 H       1  UNL1        0.0235
     39 H          -3.3121   -3.7353    0.3299 H       1  UNL1        0.1477
     40 H          -1.3111   -4.7638    0.4864 H       1  UNL1        0.0499
     41 H          -0.5559   -2.1047    1.7660 H       1  UNL1        0.0305
     42 H          -1.0195   -3.5769    2.5606 H       1  UNL1        0.0305
     43 H           1.4580   -3.0487    2.5273 H       1  UNL1        0.0560
     44 H           1.0958   -4.6433    1.8554 H       1  UNL1        0.0560
     45 H           1.1940   -4.8955   -0.5678 H       1  UNL1        0.0560
     46 H           1.6749   -3.4863   -1.5219 H       1  UNL1        0.0560
     47 H          -0.7915   -3.9594   -1.7203 H       1  UNL1        0.0305
     48 H          -0.3910   -2.3639   -1.1427 H       1  UNL1        0.0305
     49 H          -4.9828   -1.9273    0.1063 H       1  UNL1        0.0686
     50 H          -6.4129    0.0412    0.1869 H       1  UNL1        0.1478
     51 H          -6.6430    2.3037    1.0085 H       1  UNL1        0.0511
     52 H          -5.1611    2.7742    0.2880 H       1  UNL1        0.0511
     53 H          -6.0515    4.5559   -0.9189 H       1  UNL1        0.0621
     54 H          -7.4227    5.3703   -2.6711 H       1  UNL1        0.0636
     55 H          -9.2188    3.1815   -5.1141 H       1  UNL1        0.1548
     56 H         -10.2474    6.2023   -6.0823 H       1  UNL1        0.0323
     57 H          -8.7308    5.9248   -6.9669 H       1  UNL1        0.0323
     58 H          -9.8845    4.5839   -6.7431 H       1  UNL1        0.0323
     59 H          -8.6872    1.3355   -3.6140 H       1  UNL1        0.0636
     60 H          -7.4501    0.5491   -1.6654 H       1  UNL1        0.0621
     61 H          -1.5496    3.6507    0.2238 H       1  UNL1        0.0851
@<TRIPOS>BOND
     1     1     2    1
     2     2     3    1
     3     2     4    1
     4     4     5   ar
     5     5     6   ar
     6     6     7   ar
     7     7     8    1
     8     8     9    1
     9     9    10    1
    10    10    11    1
    11    11    12    1
    12    12    13    1
    13    13    14    1
    14     9    14    1
    15     7    15   ar
    16    15    16   ar
    17    16    17    1
    18    17    18    1
    19    18    19    1
    20    19    20   ar
    21    20    21   ar
    22    21    22   ar
    23    22    23    1
    24    23    24   am
    25    24    25    1
    26    24    26    2
    27    22    27   ar
    28    27    28   ar
    29    19    28   ar
    30    16    29   ar
    31     5    29   ar
    32    29    30   ar
    33    30    31   ar
    34     4    31   ar
    35     1    32    1
    36     1    33    1
    37     1    34    1
    38     2    35    1
    39     3    36    1
    40     3    37    1
    41     3    38    1
    42     8    39    1
    43     9    40    1
    44    10    41    1
    45    10    42    1
    46    11    43    1
    47    11    44    1
    48    13    45    1
    49    13    46    1
    50    14    47    1
    51    14    48    1
    52    15    49    1
    53    17    50    1
    54    18    51    1
    55    18    52    1
    56    20    53    1
    57    21    54    1
    58    23    55    1
    59    25    56    1
    60    25    57    1
    61    25    58    1
    62    27    59    1
    63    28    60    1
    64    31    61    1
