@<TRIPOS>MOLECULE
*****
 60 62 0 0 0
SMALL
GASTEIGER

@<TRIPOS>ATOM
      1 C           0.9967    0.0545   -0.0543 C.3     1  UNL1       -0.0585
      2 C           0.4438   -1.3418   -0.3815 C.3     1  UNL1       -0.0165
      3 C           0.9868   -2.3364    0.6429 C.3     1  UNL1       -0.0585
      4 C          -1.0508   -1.3449   -0.4102 C.ar    1  UNL1        0.0192
      5 C          -1.9288   -2.4182   -0.4254 C.ar    1  UNL1        0.1629
      6 N          -1.7145   -3.7637   -0.4096 N.ar    1  UNL1       -0.2129
      7 C          -2.7503   -4.5627   -0.4042 C.ar    1  UNL1        0.1246
      8 N          -2.5399   -5.9286   -0.3598 N.pl3   1  UNL1       -0.3239
      9 CA         -1.2094   -6.5458   -0.2309 C.3     1  UNL1        0.0448
     10 C          -1.0785   -7.3176    1.0939 C.3     1  UNL1       -0.0353
     11 C          -2.0309   -8.5022    1.2129 C.3     1  UNL1       -0.0635
     12 C          -0.9454   -7.4706   -1.4350 C.3     1  UNL1        0.0625
     13 O          -1.0918   -6.7841   -2.6725 O.3     1  UNL1       -0.3932
     14 C          -4.1663   -4.0436   -0.4499 C.ar    1  UNL1        0.0180
     15 C          -4.3658   -2.7093   -0.4390 C.ar    1  UNL1        0.1260
     16 N          -5.6433   -2.1448   -0.4325 N.pl3   1  UNL1       -0.3248
     17 C          -6.0083   -0.7371   -0.4443 C.3     1  UNL1        0.0357
     18 C          -6.7063   -0.3331   -1.7150 C.ar    1  UNL1       -0.0302
     19 C          -6.6826    1.0163   -2.0642 C.ar    1  UNL1       -0.0553
     20 C          -7.4426    1.4792   -3.1285 C.ar    1  UNL1       -0.0402
     21 C          -8.1486    0.6093   -3.9590 C.ar    1  UNL1        0.0334
     22 N          -8.8061    1.0701   -5.1310 N.am    1  UNL1       -0.2857
     23 C          -8.7806    2.3796   -5.5840 C.2     1  UNL1        0.2141
     24 C          -9.4835    2.6550   -6.8778 C.3     1  UNL1        0.0125
     25 O          -8.2384    3.3427   -5.0282 O.2     1  UNL1       -0.2758
     26 C          -8.1612   -0.7509   -3.6277 C.ar    1  UNL1       -0.0402
     27 C          -7.4542   -1.2125   -2.5058 C.ar    1  UNL1       -0.0553
     28 N          -3.2146   -1.8789   -0.4289 N.ar    1  UNL1       -0.2003
     29 N          -3.1619   -0.5227   -0.4128 N.ar    1  UNL1       -0.1714
     30 C          -1.8814   -0.2151   -0.4170 C.ar    1  UNL1        0.0554
     31 H           0.6473    0.3927    0.9300 H       1  UNL1        0.0235
     32 H           0.6700    0.7972   -0.7921 H       1  UNL1        0.0235
     33 H           2.0893    0.0576   -0.0473 H       1  UNL1        0.0235
     34 H           0.7996   -1.6247   -1.3806 H       1  UNL1        0.0345
     35 H           0.6255   -2.0955    1.6495 H       1  UNL1        0.0235
     36 H           0.6751   -3.3598    0.4156 H       1  UNL1        0.0235
     37 H           2.0798   -2.3242    0.6533 H       1  UNL1        0.0235
     38 H          -3.3366   -6.5477   -0.2790 H       1  UNL1        0.1478
     39 HA         -0.4362   -5.7683   -0.2384 H       1  UNL1        0.0520
     40 H          -0.0494   -7.6915    1.1849 H       1  UNL1        0.0281
     41 H          -1.2393   -6.6412    1.9423 H       1  UNL1        0.0281
     42 H          -1.8592   -9.2382    0.4223 H       1  UNL1        0.0230
     43 H          -1.8873   -9.0189    2.1654 H       1  UNL1        0.0230
     44 H          -3.0727   -8.1755    1.1572 H       1  UNL1        0.0230
     45 H1          0.0702   -7.8766   -1.3813 H       1  UNL1        0.0575
     46 H2         -1.6467   -8.3078   -1.4636 H       1  UNL1        0.0575
     47 H          -1.9408   -6.3083   -2.6096 H       1  UNL1        0.2095
     48 H          -4.9758   -4.7586   -0.4840 H       1  UNL1        0.0686
     49 H          -6.4238   -2.7872   -0.4095 H       1  UNL1        0.1478
     50 H          -6.6617   -0.5284    0.4088 H       1  UNL1        0.0511
     51 H          -5.1825   -0.0479   -0.3076 H       1  UNL1        0.0511
     52 H          -6.0780    1.7363   -1.5145 H       1  UNL1        0.0621
     53 H          -7.4498    2.5516   -3.2661 H       1  UNL1        0.0636
     54 H          -9.2462    0.3643   -5.7104 H       1  UNL1        0.1548
     55 H         -10.2751    3.3850   -6.6790 H       1  UNL1        0.0323
     56 H          -8.7585    3.1075   -7.5635 H       1  UNL1        0.0323
     57 H          -9.9121    1.7667   -7.3397 H       1  UNL1        0.0323
     58 H          -8.7151   -1.4817   -4.2098 H       1  UNL1        0.0636
     59 H          -7.4772   -2.2703   -2.2618 H       1  UNL1        0.0621
     60 H          -1.6162    0.8335   -0.4085 H       1  UNL1        0.0851
@<TRIPOS>BOND
     1     1     2    1
     2     2     3    1
     3     2     4    1
     4     4     5   ar
     5     5     6   ar
     6     6     7   ar
     7     7     8    1
     8     8     9    1
     9     9    10    1
    10    10    11    1
    11     9    12    1
    12    12    13    1
    13     7    14   ar
    14    14    15   ar
    15    15    16    1
    16    16    17    1
    17    17    18    1
    18    18    19   ar
    19    19    20   ar
    20    20    21   ar
    21    21    22    1
    22    22    23   am
    23    23    24    1
    24    23    25    2
    25    21    26   ar
    26    26    27   ar
    27    18    27   ar
    28    15    28   ar
    29     5    28   ar
    30    28    29   ar
    31    29    30   ar
    32     4    30   ar
    33     1    31    1
    34     1    32    1
    35     1    33    1
    36     2    34    1
    37     3    35    1
    38     3    36    1
    39     3    37    1
    40     8    38    1
    41     9    39    1
    42    10    40    1
    43    10    41    1
    44    11    42    1
    45    11    43    1
    46    11    44    1
    47    12    45    1
    48    12    46    1
    49    13    47    1
    50    14    48    1
    51    16    49    1
    52    17    50    1
    53    17    51    1
    54    19    52    1
    55    20    53    1
    56    22    54    1
    57    24    55    1
    58    24    56    1
    59    24    57    1
    60    26    58    1
    61    27    59    1
    62    30    60    1
