@<TRIPOS>MOLECULE
*****
 58 61 0 0 0
SMALL
GASTEIGER

@<TRIPOS>ATOM
      1 C           1.1932    0.1502    0.0189 C.3     1  UNL1       -0.0585
      2 C           0.6891   -1.2189   -0.4022 C.3     1  UNL1       -0.0165
      3 C           1.1402   -2.3512    0.5092 C.3     1  UNL1       -0.0585
      4 C          -0.7719   -1.1769   -0.3620 C.ar    1  UNL1        0.0193
      5 C          -1.6090   -1.6998   -1.2889 C.ar    1  UNL1        0.1677
      6 N          -1.4347   -2.3674   -2.4842 N.ar    1  UNL1       -0.1753
      7 C          -2.5139   -2.7358   -3.0532 C.ar    1  UNL1        0.3231
      8 O          -2.4682   -3.4125   -4.2789 O.3     1  UNL1       -0.4590
      9 C          -3.5166   -3.9692   -5.2153 C.3     1  UNL1        0.1057
     10 C          -4.3648   -2.8753   -5.8709 C.3     1  UNL1       -0.0028
     11 C          -5.1082   -2.1895   -4.7855 C.3     1  UNL1        0.0019
     12 N          -5.9091   -3.2234   -4.0572 N.3     1  UNL1       -0.3051
     13 C          -6.5999   -2.4854   -3.0487 C.3     1  UNL1       -0.0128
     14 C          -5.1767   -4.3909   -3.4587 C.3     1  UNL1        0.0019
     15 C          -4.3932   -5.0426   -4.5574 C.3     1  UNL1       -0.0028
     16 N          -3.7622   -2.5045   -2.4766 N.ar    1  UNL1       -0.1612
     17 C          -3.9719   -1.9052   -1.3420 C.ar    1  UNL1        0.2229
     18 N          -5.2122   -1.7508   -0.6987 N.pl3   1  UNL1       -0.3092
     19 C          -5.7428   -0.8883    0.3169 C.3     1  UNL1        0.0370
     20 C          -6.5763    0.2420   -0.2700 C.ar    1  UNL1       -0.0302
     21 C          -7.8672    0.1000   -0.8201 C.ar    1  UNL1       -0.0553
     22 C          -8.6133    1.2352   -1.1956 C.ar    1  UNL1       -0.0407
     23 C          -8.0958    2.5200   -1.0234 C.ar    1  UNL1        0.0246
     24 N          -8.8320    3.6406   -1.3599 N.pl3   1  UNL1       -0.3580
     25 C          -6.7948    2.6498   -0.5411 C.ar    1  UNL1       -0.0407
     26 C          -6.0418    1.5288   -0.1869 C.ar    1  UNL1       -0.0553
     27 N          -2.8394   -1.4533   -0.7518 N.ar    1  UNL1       -0.1830
     28 N          -2.8619   -0.7831    0.4016 N.ar    1  UNL1       -0.1702
     29 C          -1.5827   -0.6232    0.6554 C.ar    1  UNL1        0.0554
     30 H           0.8531    0.3987    1.0315 H       1  UNL1        0.0235
     31 H           0.7839    0.9207   -0.6499 H       1  UNL1        0.0235
     32 H           2.2782    0.1884   -0.0033 H       1  UNL1        0.0235
     33 H           1.0199   -1.4257   -1.4287 H       1  UNL1        0.0345
     34 H           0.7651   -2.2061    1.5298 H       1  UNL1        0.0235
     35 H           0.7366   -3.3132    0.1617 H       1  UNL1        0.0235
     36 H           2.2266   -2.4147    0.5317 H       1  UNL1        0.0235
     37 H          -2.9846   -4.4650   -6.0382 H       1  UNL1        0.0735
     38 H          -5.1191   -3.2701   -6.5629 H       1  UNL1        0.0313
     39 H          -3.7471   -2.1532   -6.4137 H       1  UNL1        0.0313
     40 H          -5.7698   -1.3975   -5.1544 H       1  UNL1        0.0428
     41 H          -4.3726   -1.5789   -4.2419 H       1  UNL1        0.0428
     42 H          -6.9421   -3.1374   -2.2363 H       1  UNL1        0.0391
     43 H          -5.8647   -1.7566   -2.7482 H       1  UNL1        0.0391
     44 H          -7.3771   -1.7843   -3.3383 H       1  UNL1        0.0391
     45 H          -4.4556   -4.3071   -2.6381 H       1  UNL1        0.0428
     46 H          -5.8711   -5.0751   -2.9601 H       1  UNL1        0.0428
     47 H          -5.1262   -5.4801   -5.2453 H       1  UNL1        0.0313
     48 H          -3.7712   -5.8565   -4.1665 H       1  UNL1        0.0313
     49 H          -6.0247   -2.0843   -1.1503 H       1  UNL1        0.1492
     50 H          -6.4276   -1.5025    0.9168 H       1  UNL1        0.0512
     51 H          -5.0079   -0.5099    1.0196 H       1  UNL1        0.0512
     52 H          -8.3357   -0.8740   -0.9507 H       1  UNL1        0.0621
     53 H          -9.6175    1.1141   -1.6001 H       1  UNL1        0.0636
     54 H          -9.7894    3.5582   -1.6713 H       1  UNL1        0.1423
     55 H          -8.4639    4.5653   -1.1809 H       1  UNL1        0.1423
     56 H          -6.3509    3.6316   -0.4091 H       1  UNL1        0.0636
     57 H          -5.0317    1.6610    0.1932 H       1  UNL1        0.0621
     58 H          -1.3189   -0.1137    1.5667 H       1  UNL1        0.0851
@<TRIPOS>BOND
     1     1     2    1
     2     2     3    1
     3     2     4    1
     4     4     5   ar
     5     5     6   ar
     6     6     7   ar
     7     7     8    1
     8     8     9    1
     9     9    10    1
    10    10    11    1
    11    11    12    1
    12    12    13    1
    13    12    14    1
    14    14    15    1
    15     9    15    1
    16     7    16   ar
    17    16    17   ar
    18    17    18    1
    19    18    19    1
    20    19    20    1
    21    20    21   ar
    22    21    22   ar
    23    22    23   ar
    24    23    24    1
    25    23    25   ar
    26    25    26   ar
    27    20    26   ar
    28    17    27   ar
    29     5    27   ar
    30    27    28   ar
    31    28    29   ar
    32     4    29   ar
    33     1    30    1
    34     1    31    1
    35     1    32    1
    36     2    33    1
    37     3    34    1
    38     3    35    1
    39     3    36    1
    40     9    37    1
    41    10    38    1
    42    10    39    1
    43    11    40    1
    44    11    41    1
    45    13    42    1
    46    13    43    1
    47    13    44    1
    48    14    45    1
    49    14    46    1
    50    15    47    1
    51    15    48    1
    52    18    49    1
    53    19    50    1
    54    19    51    1
    55    21    52    1
    56    22    53    1
    57    24    54    1
    58    24    55    1
    59    25    56    1
    60    26    57    1
    61    29    58    1
