@<TRIPOS>MOLECULE
*****
 67 70 0 0 0
SMALL
GASTEIGER

@<TRIPOS>ATOM
      1 C           0.8425   -0.0499    0.3627 C.3     1  UNL1       -0.0585
      2 C           0.2819   -0.7964   -0.8379 C.3     1  UNL1       -0.0165
      3 C           0.8430   -2.1956   -1.1152 C.3     1  UNL1       -0.0585
      4 C          -1.2165   -0.6661   -1.1198 C.ar    1  UNL1        0.0193
      5 C          -2.0475   -0.3662   -2.2245 C.ar    1  UNL1        0.1659
      6 N          -1.9276   -0.0221   -3.5465 N.ar    1  UNL1       -0.1949
      7 C          -2.8831    0.1997   -4.3767 C.ar    1  UNL1        0.2203
      8 N          -2.6646    0.5625   -5.7295 N.pl3   1  UNL1       -0.3104
      9 C          -1.3889    0.7676   -6.4860 C.3     1  UNL1        0.0256
     10 C          -0.5430   -0.5121   -6.6002 C.3     1  UNL1       -0.0216
     11 C          -0.0388   -0.8734   -5.2465 C.3     1  UNL1        0.0003
     12 N           0.6915    0.3285   -4.7547 N.3     1  UNL1       -0.3052
     13 C           1.1170    0.0033   -3.4528 C.3     1  UNL1       -0.0128
     14 C          -0.0664    1.6013   -4.5979 C.3     1  UNL1        0.0003
     15 C          -0.5609    1.9488   -5.9559 C.3     1  UNL1       -0.0216
     16 N          -4.1958    0.0793   -3.9586 N.ar    1  UNL1       -0.1811
     17 C          -4.4050   -0.2694   -2.7066 C.ar    1  UNL1        0.2214
     18 N          -5.6989   -0.4345   -2.3018 N.pl3   1  UNL1       -0.3092
     19 C          -6.1276   -0.7335   -0.9738 C.3     1  UNL1        0.0370
     20 C          -6.7987    0.4441   -0.3547 C.ar    1  UNL1       -0.0302
     21 C          -7.8242    0.1388    0.5177 C.ar    1  UNL1       -0.0553
     22 C          -8.4656    1.1477    1.1959 C.ar    1  UNL1       -0.0402
     23 C          -8.1080    2.4891    1.0526 C.ar    1  UNL1        0.0334
     24 N          -8.8066    3.5019    1.7583 N.am    1  UNL1       -0.2855
     25 C          -9.8650    3.2514    2.6222 C.2     1  UNL1        0.2169
     26 C         -10.5196    4.4504    3.2484 C.3     1  UNL1        0.0215
     27 C         -11.9994    4.4299    2.8877 C.3     1  UNL1       -0.0570
     28 O         -10.3245    2.1486    2.9223 O.2     1  UNL1       -0.2755
     29 C          -7.0431    2.8057    0.1988 C.ar    1  UNL1       -0.0402
     30 C          -6.3793    1.7790   -0.4930 C.ar    1  UNL1       -0.0553
     31 N          -3.3215   -0.4771   -1.8076 N.ar    1  UNL1       -0.1831
     32 N          -3.3985   -0.7927   -0.4954 N.ar    1  UNL1       -0.1702
     33 C          -2.1445   -0.9158   -0.0999 C.ar    1  UNL1        0.0554
     34 H           0.5674   -0.4815    1.3174 H       1  UNL1        0.0235
     35 H           0.5147    0.9995    0.3088 H       1  UNL1        0.0235
     36 H           1.9422   -0.0126    0.2842 H       1  UNL1        0.0235
     37 H           0.8414   -0.1616   -1.4714 H       1  UNL1        0.0345
     38 H           0.5850   -2.9119   -0.3346 H       1  UNL1        0.0235
     39 H           0.4730   -2.5887   -2.0739 H       1  UNL1        0.0235
     40 H           1.9375   -2.1625   -1.2082 H       1  UNL1        0.0235
     41 H          -3.4938    0.7139   -6.2868 H       1  UNL1        0.1492
     42 H          -1.6328    1.0386   -7.5213 H       1  UNL1        0.0499
     43 H           0.3547   -0.3606   -7.2151 H       1  UNL1        0.0295
     44 H          -1.1055   -1.3403   -7.0406 H       1  UNL1        0.0295
     45 H           0.6303   -1.7421   -5.2617 H       1  UNL1        0.0427
     46 H          -0.8708   -1.3153   -4.6856 H       1  UNL1        0.0427
     47 H           1.5990    0.8337   -2.9293 H       1  UNL1        0.0391
     48 H           0.1700   -0.1739   -2.9911 H       1  UNL1        0.0391
     49 H           1.6829   -0.9213   -3.3619 H       1  UNL1        0.0391
     50 H          -0.9047    1.6884   -3.8975 H       1  UNL1        0.0427
     51 H           0.5823    2.3804   -4.1796 H       1  UNL1        0.0427
     52 H           0.3401    2.1299   -6.5583 H       1  UNL1        0.0295
     53 H          -1.1322    2.8810   -5.9311 H       1  UNL1        0.0295
     54 H          -6.4128   -0.1673   -2.9661 H       1  UNL1        0.1492
     55 H          -6.7727   -1.6151   -1.0233 H       1  UNL1        0.0512
     56 H          -5.3812   -1.0307   -0.2513 H       1  UNL1        0.0512
     57 H          -8.1248   -0.8898    0.6977 H       1  UNL1        0.0621
     58 H          -9.2565    0.8050    1.8429 H       1  UNL1        0.0636
     59 H          -8.5070    4.4574    1.6065 H       1  UNL1        0.1548
     60 H         -10.4064    4.3308    4.3331 H       1  UNL1        0.0356
     61 H         -10.0455    5.3884    2.9561 H       1  UNL1        0.0356
     62 H         -12.4692    3.4776    3.1667 H       1  UNL1        0.0234
     63 H         -12.5360    5.2278    3.4053 H       1  UNL1        0.0234
     64 H         -12.1357    4.5493    1.8078 H       1  UNL1        0.0234
     65 H          -6.7002    3.8278    0.0551 H       1  UNL1        0.0636
     66 H          -5.5269    2.0208   -1.1281 H       1  UNL1        0.0621
     67 H          -1.9196   -1.1869    0.9232 H       1  UNL1        0.0851
@<TRIPOS>BOND
     1     1     2    1
     2     2     3    1
     3     2     4    1
     4     4     5   ar
     5     5     6   ar
     6     6     7   ar
     7     7     8    1
     8     8     9    1
     9     9    10    1
    10    10    11    1
    11    11    12    1
    12    12    13    1
    13    12    14    1
    14    14    15    1
    15     9    15    1
    16     7    16   ar
    17    16    17   ar
    18    17    18    1
    19    18    19    1
    20    19    20    1
    21    20    21   ar
    22    21    22   ar
    23    22    23   ar
    24    23    24    1
    25    24    25   am
    26    25    26    1
    27    26    27    1
    28    25    28    2
    29    23    29   ar
    30    29    30   ar
    31    20    30   ar
    32    17    31   ar
    33     5    31   ar
    34    31    32   ar
    35    32    33   ar
    36     4    33   ar
    37     1    34    1
    38     1    35    1
    39     1    36    1
    40     2    37    1
    41     3    38    1
    42     3    39    1
    43     3    40    1
    44     8    41    1
    45     9    42    1
    46    10    43    1
    47    10    44    1
    48    11    45    1
    49    11    46    1
    50    13    47    1
    51    13    48    1
    52    13    49    1
    53    14    50    1
    54    14    51    1
    55    15    52    1
    56    15    53    1
    57    18    54    1
    58    19    55    1
    59    19    56    1
    60    21    57    1
    61    22    58    1
    62    24    59    1
    63    26    60    1
    64    26    61    1
    65    27    62    1
    66    27    63    1
    67    27    64    1
    68    29    65    1
    69    30    66    1
    70    33    67    1
