@<TRIPOS>MOLECULE
*****
 63 66 0 0 0
SMALL
GASTEIGER

@<TRIPOS>ATOM
      1 C           1.1175    0.0520   -0.0731 C.3     1  UNL1       -0.0585
      2 C           0.6029    0.9918    1.0109 C.3     1  UNL1       -0.0165
      3 C           1.0823    2.4239    0.8007 C.3     1  UNL1       -0.0585
      4 C          -0.8691    0.9762    1.0084 C.ar    1  UNL1        0.0193
      5 C          -1.6971    0.9676    2.1022 C.ar    1  UNL1        0.1677
      6 N          -1.4879    0.9457    3.4505 N.ar    1  UNL1       -0.1753
      7 C          -2.5708    1.0295    4.1705 C.ar    1  UNL1        0.3231
      8 O          -2.4844    0.9236    5.5351 O.3     1  UNL1       -0.4578
      9 C          -3.5955    0.8756    6.5090 C.3     1  UNL1        0.1157
     10 C          -4.4498    2.1571    6.5140 C.3     1  UNL1        0.0331
     11 N          -5.2669    2.2290    5.3293 N.3     1  UNL1       -0.3125
     12 C          -6.0744    1.0366    5.0983 C.3     1  UNL1       -0.0039
     13 C          -5.3401   -0.3406    5.1545 C.3     1  UNL1       -0.0371
     14 C          -4.4618   -0.3924    6.3903 C.3     1  UNL1       -0.0133
     15 N          -3.8143    1.1539    3.6342 N.ar    1  UNL1       -0.1612
     16 C          -4.0692    1.0956    2.3584 C.ar    1  UNL1        0.2229
     17 N          -5.3615    1.1009    1.8646 N.pl3   1  UNL1       -0.3092
     18 C          -5.8674    1.0743    0.5127 C.3     1  UNL1        0.0370
     19 C          -6.6511   -0.1909    0.2643 C.ar    1  UNL1       -0.0302
     20 C          -6.0348   -1.4082    0.5253 C.ar    1  UNL1       -0.0553
     21 C          -6.6665   -2.5994    0.2114 C.ar    1  UNL1       -0.0402
     22 C          -7.9323   -2.6430   -0.3720 C.ar    1  UNL1        0.0334
     23 N          -8.5460   -3.8870   -0.6945 N.am    1  UNL1       -0.2855
     24 C          -7.9677   -5.1266   -0.4499 C.2     1  UNL1        0.2169
     25 C          -8.7445   -6.3414   -0.8801 C.3     1  UNL1        0.0215
     26 C          -7.8834   -7.1528   -1.8409 C.3     1  UNL1       -0.0570
     27 O          -6.8735   -5.3322    0.0881 O.2     1  UNL1       -0.2755
     28 C          -8.5684   -1.4209   -0.6362 C.ar    1  UNL1       -0.0402
     29 C          -7.9283   -0.2018   -0.3179 C.ar    1  UNL1       -0.0553
     30 N          -2.9535    1.0063    1.5588 N.ar    1  UNL1       -0.1830
     31 N          -3.0003    0.9868    0.2209 N.ar    1  UNL1       -0.1702
     32 C          -1.7232    1.0063   -0.1164 C.ar    1  UNL1        0.0554
     33 H           0.7820    0.3723   -1.0668 H       1  UNL1        0.0235
     34 H           0.7309   -0.9628    0.0862 H       1  UNL1        0.0235
     35 H           2.2065    0.0205   -0.0746 H       1  UNL1        0.0235
     36 H           0.9642    0.6348    1.9841 H       1  UNL1        0.0345
     37 H           0.7186    2.8253   -0.1529 H       1  UNL1        0.0235
     38 H           0.7022    3.0831    1.5919 H       1  UNL1        0.0235
     39 H           2.1724    2.4688    0.8065 H       1  UNL1        0.0235
     40 H          -3.1099    0.8245    7.4943 H       1  UNL1        0.0747
     41 H          -5.1266    2.1721    7.3762 H       1  UNL1        0.0460
     42 H          -3.7982    3.0351    6.5880 H       1  UNL1        0.0460
     43 H          -5.6668    3.1284    5.0952 H       1  UNL1        0.1221
     44 H          -6.5724    1.1634    4.1451 H       1  UNL1        0.0424
     45 H          -6.8796    1.0249    5.8279 H       1  UNL1        0.0424
     46 H          -4.7005   -0.6136    4.3067 H       1  UNL1        0.0279
     47 H          -6.0718   -1.1512    5.1207 H       1  UNL1        0.0279
     48 H          -3.8287   -1.2866    6.3772 H       1  UNL1        0.0302
     49 H          -5.1360   -0.4747    7.2515 H       1  UNL1        0.0302
     50 H          -6.0852    0.8898    2.5274 H       1  UNL1        0.1492
     51 H          -6.5126    1.9480    0.3891 H       1  UNL1        0.0512
     52 H          -5.1157    1.1405   -0.2662 H       1  UNL1        0.0512
     53 H          -5.0377   -1.4592    0.9554 H       1  UNL1        0.0621
     54 H          -6.0899   -3.4837    0.4374 H       1  UNL1        0.0636
     55 H          -9.4612   -3.8520   -1.1290 H       1  UNL1        0.1548
     56 H          -8.9252   -6.9308    0.0282 H       1  UNL1        0.0356
     57 H          -9.7109   -6.0892   -1.3195 H       1  UNL1        0.0356
     58 H          -6.9067   -7.3945   -1.4013 H       1  UNL1        0.0234
     59 H          -8.3707   -8.0954   -2.1002 H       1  UNL1        0.0234
     60 H          -7.6903   -6.5869   -2.7581 H       1  UNL1        0.0234
     61 H          -9.5515   -1.3776   -1.1003 H       1  UNL1        0.0636
     62 H          -8.4233    0.7415   -0.5454 H       1  UNL1        0.0621
     63 H          -1.4771    1.0382   -1.1671 H       1  UNL1        0.0851
@<TRIPOS>BOND
     1     1     2    1
     2     2     3    1
     3     2     4    1
     4     4     5   ar
     5     5     6   ar
     6     6     7   ar
     7     7     8    1
     8     8     9    1
     9     9    10    1
    10    10    11    1
    11    11    12    1
    12    12    13    1
    13    13    14    1
    14     9    14    1
    15     7    15   ar
    16    15    16   ar
    17    16    17    1
    18    17    18    1
    19    18    19    1
    20    19    20   ar
    21    20    21   ar
    22    21    22   ar
    23    22    23    1
    24    23    24   am
    25    24    25    1
    26    25    26    1
    27    24    27    2
    28    22    28   ar
    29    28    29   ar
    30    19    29   ar
    31    16    30   ar
    32     5    30   ar
    33    30    31   ar
    34    31    32   ar
    35     4    32   ar
    36     1    33    1
    37     1    34    1
    38     1    35    1
    39     2    36    1
    40     3    37    1
    41     3    38    1
    42     3    39    1
    43     9    40    1
    44    10    41    1
    45    10    42    1
    46    11    43    1
    47    12    44    1
    48    12    45    1
    49    13    46    1
    50    13    47    1
    51    14    48    1
    52    14    49    1
    53    17    50    1
    54    18    51    1
    55    18    52    1
    56    20    53    1
    57    21    54    1
    58    23    55    1
    59    25    56    1
    60    25    57    1
    61    26    58    1
    62    26    59    1
    63    26    60    1
    64    28    61    1
    65    29    62    1
    66    32    63    1
