@<TRIPOS>MOLECULE
*****
 63 66 0 0 0
SMALL
GASTEIGER

@<TRIPOS>ATOM
      1 C          -0.9325    2.2905    5.7546 C.3     1  UNL1       -0.0585
      2 C          -1.9454    3.4115    5.5058 C.3     1  UNL1       -0.0165
      3 C          -3.1014    3.3070    6.5024 C.3     1  UNL1       -0.0585
      4 C          -1.2927    4.7472    5.6079 C.ar    1  UNL1        0.0193
      5 C          -1.4341    5.8500    4.7894 C.ar    1  UNL1        0.1677
      6 N          -2.1476    6.1096    3.6714 N.ar    1  UNL1       -0.1753
      7 C          -2.1059    7.3227    3.2103 C.ar    1  UNL1        0.3231
      8 O          -2.8515    7.7081    2.1338 O.3     1  UNL1       -0.4578
      9 C          -3.6828    6.7030    1.4838 C.3     1  UNL1        0.1157
     10 C          -4.7404    6.1504    2.4539 C.3     1  UNL1       -0.0133
     11 C          -5.7951    5.3016    1.7637 C.3     1  UNL1       -0.0371
     12 C          -6.4183    6.0426    0.5934 C.3     1  UNL1       -0.0039
     13 N          -5.3842    6.4386   -0.3629 N.3     1  UNL1       -0.3125
     14 C          -4.4088    7.3429    0.2728 C.3     1  UNL1        0.0331
     15 N          -1.3529    8.3608    3.7218 N.ar    1  UNL1       -0.1612
     16 C          -0.6167    8.1245    4.7819 C.ar    1  UNL1        0.2229
     17 N           0.1510    9.1420    5.3091 N.pl3   1  UNL1       -0.3092
     18 C           1.0410    9.1061    6.4427 C.3     1  UNL1        0.0370
     19 C           2.4878    9.2078    6.0432 C.ar    1  UNL1       -0.0302
     20 C           3.3918    8.4449    6.7768 C.ar    1  UNL1       -0.0553
     21 C           4.7418    8.4661    6.4769 C.ar    1  UNL1       -0.0402
     22 C           5.2585    9.2447    5.4435 C.ar    1  UNL1        0.0334
     23 N           6.6482    9.2292    5.1413 N.am    1  UNL1       -0.2855
     24 C           7.5835    8.4550    5.8136 C.2     1  UNL1        0.2169
     25 C           9.0180    8.5925    5.3836 C.3     1  UNL1        0.0215
     26 C           9.8451    9.0193    6.5903 C.3     1  UNL1       -0.0570
     27 O           7.3547    7.6661    6.7403 O.2     1  UNL1       -0.2755
     28 C           4.3629   10.0412    4.7155 C.ar    1  UNL1       -0.0402
     29 C           2.9857   10.0290    5.0229 C.ar    1  UNL1       -0.0553
     30 N          -0.6576    6.8300    5.3426 N.ar    1  UNL1       -0.1830
     31 N           0.0027    6.4238    6.4456 N.ar    1  UNL1       -0.1702
     32 C          -0.3811    5.1637    6.6017 C.ar    1  UNL1        0.0554
     33 H          -0.5188    2.3411    6.7693 H       1  UNL1        0.0235
     34 H          -0.0921    2.3631    5.0550 H       1  UNL1        0.0235
     35 H          -1.3983    1.3088    5.6364 H       1  UNL1        0.0235
     36 H          -2.3477    3.2898    4.4922 H       1  UNL1        0.0345
     37 H          -2.7472    3.4113    7.5352 H       1  UNL1        0.0235
     38 H          -3.8423    4.0958    6.3295 H       1  UNL1        0.0235
     39 H          -3.6044    2.3396    6.4133 H       1  UNL1        0.0235
     40 H          -3.0237    5.9075    1.1107 H       1  UNL1        0.0747
     41 H          -4.2926    5.5244    3.2274 H       1  UNL1        0.0302
     42 H          -5.2109    6.9900    2.9792 H       1  UNL1        0.0302
     43 H          -5.3444    4.3624    1.4179 H       1  UNL1        0.0279
     44 H          -6.5681    5.0358    2.4932 H       1  UNL1        0.0279
     45 H          -7.1475    5.3894    0.1020 H       1  UNL1        0.0424
     46 H          -6.9650    6.9246    0.9490 H       1  UNL1        0.0424
     47 H          -5.8257    6.9122   -1.1509 H       1  UNL1        0.1221
     48 H          -4.9162    8.2651    0.5846 H       1  UNL1        0.0460
     49 H          -3.6734    7.6510   -0.4798 H       1  UNL1        0.0460
     50 H           0.1184   10.0133    4.7986 H       1  UNL1        0.1492
     51 H           0.7870    9.8982    7.1525 H       1  UNL1        0.0512
     52 H           0.9450    8.2017    7.0338 H       1  UNL1        0.0512
     53 H           3.0660    7.7969    7.5884 H       1  UNL1        0.0621
     54 H           5.3507    7.8259    7.0975 H       1  UNL1        0.0636
     55 H           6.9589    9.8190    4.3776 H       1  UNL1        0.1548
     56 H           9.3418    7.5963    5.0561 H       1  UNL1        0.0356
     57 H           9.1409    9.2824    4.5470 H       1  UNL1        0.0356
     58 H           9.7093    8.3316    7.4353 H       1  UNL1        0.0234
     59 H          10.9097    9.0370    6.3467 H       1  UNL1        0.0234
     60 H           9.5413   10.0133    6.9346 H       1  UNL1        0.0234
     61 H           4.6965   10.6765    3.8984 H       1  UNL1        0.0636
     62 H           2.3044   10.6510    4.4471 H       1  UNL1        0.0621
     63 H           0.0161    4.5957    7.4338 H       1  UNL1        0.0851
@<TRIPOS>BOND
     1     1     2    1
     2     2     3    1
     3     2     4    1
     4     4     5   ar
     5     5     6   ar
     6     6     7   ar
     7     7     8    1
     8     9    10    1
     9    10    11    1
    10    11    12    1
    11    12    13    1
    12    13    14    1
    13     9    14    1
    14     7    15   ar
    15    15    16   ar
    16    16    17    1
    17    17    18    1
    18    18    19    1
    19    19    20   ar
    20    20    21   ar
    21    21    22   ar
    22    22    23    1
    23    23    24   am
    24    24    25    1
    25    25    26    1
    26    24    27    2
    27    22    28   ar
    28    28    29   ar
    29    19    29   ar
    30    16    30   ar
    31     5    30   ar
    32    30    31   ar
    33    31    32   ar
    34     4    32   ar
    35     1    33    1
    36     1    34    1
    37     1    35    1
    38     2    36    1
    39     3    37    1
    40     3    38    1
    41     3    39    1
    42    10    41    1
    43    10    42    1
    44    11    43    1
    45    11    44    1
    46    12    45    1
    47    12    46    1
    48    13    47    1
    49    14    48    1
    50    14    49    1
    51    17    50    1
    52    18    51    1
    53    18    52    1
    54    20    53    1
    55    21    54    1
    56    23    55    1
    57    25    56    1
    58    25    57    1
    59    26    58    1
    60    26    59    1
    61    26    60    1
    62    28    61    1
    63    29    62    1
    64    32    63    1
    65     9    40    1
    66     9     8    1
