@<TRIPOS>MOLECULE
*****
 64 67 0 0 0
SMALL
GASTEIGER

@<TRIPOS>ATOM
      1 C           1.0692   -0.0269   -0.1208 C.3     1  UNL1       -0.0585
      2 C           0.5176    1.3827    0.0587 C.3     1  UNL1       -0.0165
      3 C           1.0588    2.3399   -1.0041 C.3     1  UNL1       -0.0585
      4 C          -0.9723    1.4346    0.1548 C.ar    1  UNL1        0.0193
      5 C          -1.8237    2.1276    1.0038 C.ar    1  UNL1        0.1659
      6 N          -1.6725    2.9884    2.0182 N.ar    1  UNL1       -0.1949
      7 C          -2.6695    3.5895    2.5944 C.ar    1  UNL1        0.2203
      8 N          -2.4528    4.5533    3.5647 N.pl3   1  UNL1       -0.3093
      9 C          -1.1600    4.9803    4.1454 C.3     1  UNL1        0.0358
     10 C          -0.2657    5.7280    3.1315 C.3     1  UNL1       -0.0322
     11 C           0.3510    4.7894    2.1138 C.3     1  UNL1       -0.0387
     12 C           0.9765    3.5841    2.8434 C.3     1  UNL1       -0.0040
     13 N           0.1481    2.9012    3.8262 N.3     1  UNL1       -0.3142
     14 C          -0.3836    3.8149    4.8122 C.3     1  UNL1        0.0144
     15 N          -3.9777    3.3143    2.2327 N.ar    1  UNL1       -0.1811
     16 C          -4.1923    2.4578    1.2552 C.ar    1  UNL1        0.2214
     17 N          -5.4906    2.1973    0.8773 N.pl3   1  UNL1       -0.3092
     18 C          -5.9491    1.3037   -0.1530 C.3     1  UNL1        0.0370
     19 C          -6.6243    0.0991    0.4320 C.ar    1  UNL1       -0.0302
     20 C          -6.0806   -1.1478    0.1431 C.ar    1  UNL1       -0.0553
     21 C          -6.6713   -2.2998    0.6274 C.ar    1  UNL1       -0.0402
     22 C          -7.8121   -2.2671    1.4274 C.ar    1  UNL1        0.0334
     23 N          -8.3885   -3.4697    1.9229 N.am    1  UNL1       -0.2855
     24 C          -7.8817   -4.7371    1.6750 C.2     1  UNL1        0.2169
     25 C          -8.6367   -5.9017    2.2518 C.3     1  UNL1        0.0215
     26 C          -9.0362   -6.8316    1.1124 C.3     1  UNL1       -0.0570
     27 O          -6.8658   -5.0082    1.0157 O.2     1  UNL1       -0.2755
     28 C          -8.3682   -1.0131    1.7244 C.ar    1  UNL1       -0.0402
     29 C          -7.7764    0.1645    1.2240 C.ar    1  UNL1       -0.0553
     30 N          -3.0885    1.8444    0.6147 N.ar    1  UNL1       -0.1831
     31 N          -3.1295    0.9782   -0.4222 N.ar    1  UNL1       -0.1702
     32 C          -1.8521    0.7392   -0.6915 C.ar    1  UNL1        0.0554
     33 H           0.7590   -0.4738   -1.0672 H       1  UNL1        0.0235
     34 H           0.7234   -0.6660    0.7003 H       1  UNL1        0.0235
     35 H           2.1644   -0.0101   -0.0850 H       1  UNL1        0.0235
     36 H           0.9329    1.6446    1.0114 H       1  UNL1        0.0345
     37 H           0.7376    2.0369   -2.0067 H       1  UNL1        0.0235
     38 H           0.7075    3.3657   -0.8400 H       1  UNL1        0.0235
     39 H           2.1544    2.3614   -0.9946 H       1  UNL1        0.0235
     40 H          -3.2801    4.8831    4.0424 H       1  UNL1        0.1492
     41 H          -1.3792    5.7031    4.9435 H       1  UNL1        0.0511
     42 H          -0.8191    6.5294    2.6311 H       1  UNL1        0.0284
     43 H           0.5750    6.1971    3.6595 H       1  UNL1        0.0284
     44 H          -0.4064    4.5519    1.3610 H       1  UNL1        0.0278
     45 H           1.1130    5.2790    1.5012 H       1  UNL1        0.0278
     46 H           1.2850    2.8791    2.1014 H       1  UNL1        0.0424
     47 H           1.9047    3.8888    3.3226 H       1  UNL1        0.0424
     48 H           0.5009    2.0196    4.1756 H       1  UNL1        0.1220
     49 H           0.4662    4.2003    5.3890 H       1  UNL1        0.0442
     50 H          -1.0360    3.2863    5.5165 H       1  UNL1        0.0442
     51 H          -6.1971    2.6299    1.4543 H       1  UNL1        0.1492
     52 H          -6.6101    1.8263   -0.8469 H       1  UNL1        0.0512
     53 H          -5.1659    0.9423   -0.8090 H       1  UNL1        0.0512
     54 H          -5.1840   -1.2558   -0.4649 H       1  UNL1        0.0621
     55 H          -6.1756   -3.2141    0.3377 H       1  UNL1        0.0636
     56 H          -9.2174   -3.3780    2.4993 H       1  UNL1        0.1548
     57 H          -7.9397   -6.4252    2.9189 H       1  UNL1        0.0356
     58 H          -9.5017   -5.5902    2.8398 H       1  UNL1        0.0356
     59 H          -8.1659   -7.1338    0.5148 H       1  UNL1        0.0234
     60 H          -9.5042   -7.7406    1.4967 H       1  UNL1        0.0234
     61 H          -9.7332   -6.3314    0.4321 H       1  UNL1        0.0234
     62 H          -9.2581   -0.9124    2.3405 H       1  UNL1        0.0636
     63 H          -8.2112    1.1350    1.4534 H       1  UNL1        0.0621
     64 H          -1.5933    0.0674   -1.4983 H       1  UNL1        0.0851
@<TRIPOS>BOND
     1     1     2    1
     2     2     3    1
     3     2     4    1
     4     4     5   ar
     5     5     6   ar
     6     6     7   ar
     7     7     8    1
     8     8     9    1
     9     9    10    1
    10    10    11    1
    11    11    12    1
    12    12    13    1
    13    13    14    1
    14     9    14    1
    15     7    15   ar
    16    15    16   ar
    17    16    17    1
    18    17    18    1
    19    18    19    1
    20    19    20   ar
    21    20    21   ar
    22    21    22   ar
    23    22    23    1
    24    23    24   am
    25    24    25    1
    26    25    26    1
    27    24    27    2
    28    22    28   ar
    29    28    29   ar
    30    19    29   ar
    31    16    30   ar
    32     5    30   ar
    33    30    31   ar
    34    31    32   ar
    35     4    32   ar
    36     1    33    1
    37     1    34    1
    38     1    35    1
    39     2    36    1
    40     3    37    1
    41     3    38    1
    42     3    39    1
    43     8    40    1
    44     9    41    1
    45    10    42    1
    46    10    43    1
    47    11    44    1
    48    11    45    1
    49    12    46    1
    50    12    47    1
    51    13    48    1
    52    14    49    1
    53    14    50    1
    54    17    51    1
    55    18    52    1
    56    18    53    1
    57    20    54    1
    58    21    55    1
    59    23    56    1
    60    25    57    1
    61    25    58    1
    62    26    59    1
    63    26    60    1
    64    26    61    1
    65    28    62    1
    66    29    63    1
    67    32    64    1
