@<TRIPOS>MOLECULE
*****
 64 67 0 0 0
SMALL
GASTEIGER

@<TRIPOS>ATOM
      1 C           0.9838   -0.0825   -0.0255 C.3     1  UNL1       -0.0585
      2 C           0.4331    0.2975   -1.4004 C.3     1  UNL1       -0.0165
      3 C           0.9636   -0.6653   -2.4652 C.3     1  UNL1       -0.0585
      4 C          -1.0591    0.3516   -1.4128 C.ar    1  UNL1        0.0193
      5 C          -1.9199    1.2844   -1.9619 C.ar    1  UNL1        0.1659
      6 N          -1.7678    2.4295   -2.6378 N.ar    1  UNL1       -0.1949
      7 C          -2.7717    3.0876   -3.1275 C.ar    1  UNL1        0.2203
      8 N          -2.5332    4.2286   -3.8591 N.pl3   1  UNL1       -0.3104
      9 C          -1.2304    4.7906   -4.2733 C.3     1  UNL1        0.0256
     10 C          -0.3867    3.8532   -5.1477 C.3     1  UNL1       -0.0219
     11 C           0.3652    2.8023   -4.3459 C.3     1  UNL1       -0.0024
     12 N           1.1175    3.3970   -3.2332 N.3     1  UNL1       -0.3159
     13 C           0.3234    4.2516   -2.3390 C.3     1  UNL1       -0.0024
     14 C          -0.3965    5.3432   -3.1124 C.3     1  UNL1       -0.0219
     15 N          -4.0747    2.6690   -2.9338 N.ar    1  UNL1       -0.1811
     16 C          -4.2840    1.5606   -2.2543 C.ar    1  UNL1        0.2214
     17 N          -5.5739    1.1300   -2.0604 N.pl3   1  UNL1       -0.3092
     18 C          -6.0090    0.0126   -1.2701 C.3     1  UNL1        0.0370
     19 C          -6.7445    0.4225   -0.0294 C.ar    1  UNL1       -0.0302
     20 C          -7.3088   -0.6173    0.6992 C.ar    1  UNL1       -0.0553
     21 C          -7.9838   -0.3595    1.8759 C.ar    1  UNL1       -0.0402
     22 C          -8.1185    0.9315    2.3859 C.ar    1  UNL1        0.0334
     23 N          -8.8310    1.1700    3.5918 N.am    1  UNL1       -0.2855
     24 C          -9.4329    0.1771    4.3498 C.2     1  UNL1        0.2169
     25 C         -10.1824    0.6167    5.5762 C.3     1  UNL1        0.0215
     26 C         -11.6229    0.1335    5.4611 C.3     1  UNL1       -0.0570
     27 O          -9.4190   -1.0390    4.1118 O.2     1  UNL1       -0.2755
     28 C          -7.5281    1.9844    1.6741 C.ar    1  UNL1       -0.0402
     29 C          -6.8334    1.7263    0.4773 C.ar    1  UNL1       -0.0553
     30 N          -3.1778    0.8389   -1.7485 N.ar    1  UNL1       -0.1831
     31 N          -3.2050   -0.3174   -1.0521 N.ar    1  UNL1       -0.1702
     32 C          -1.9248   -0.6028   -0.8476 C.ar    1  UNL1        0.0554
     33 H           0.6687   -1.0887    0.2703 H       1  UNL1        0.0235
     34 H           0.6304    0.6195    0.7377 H       1  UNL1        0.0235
     35 H           2.0782   -0.0616   -0.0262 H       1  UNL1        0.0235
     36 H           0.8161    1.2920   -1.6085 H       1  UNL1        0.0345
     37 H           0.6296   -1.6914   -2.2716 H       1  UNL1        0.0235
     38 H           0.6126   -0.3881   -3.4655 H       1  UNL1        0.0235
     39 H           2.0587   -0.6669   -2.4815 H       1  UNL1        0.0235
     40 H          -3.3533    4.6922   -4.2289 H       1  UNL1        0.1492
     41 H          -1.4722    5.6566   -4.9069 H       1  UNL1        0.0499
     42 H          -1.0037    3.3828   -5.9213 H       1  UNL1        0.0295
     43 H           0.3754    4.4467   -5.6732 H       1  UNL1        0.0295
     44 H          -0.3040    1.9972   -4.0538 H       1  UNL1        0.0425
     45 H           1.0618    2.2610   -4.9939 H       1  UNL1        0.0425
     46 H           1.5077    2.6416   -2.6789 H       1  UNL1        0.1219
     47 H           0.9921    4.7013   -1.5982 H       1  UNL1        0.0425
     48 H          -0.3746    3.7095   -1.7024 H       1  UNL1        0.0425
     49 H           0.3802    6.0094   -3.5161 H       1  UNL1        0.0295
     50 H          -1.0115    5.9552   -2.4433 H       1  UNL1        0.0295
     51 H          -6.3001    1.7481   -2.3957 H       1  UNL1        0.1492
     52 H          -6.6390   -0.6273   -1.8956 H       1  UNL1        0.0512
     53 H          -5.2285   -0.6526   -0.9210 H       1  UNL1        0.0512
     54 H          -7.2168   -1.6521    0.3753 H       1  UNL1        0.0621
     55 H          -8.3894   -1.2340    2.3612 H       1  UNL1        0.0636
     56 H          -8.8970    2.1329    3.9023 H       1  UNL1        0.1548
     57 H          -9.7004    0.1219    6.4289 H       1  UNL1        0.0356
     58 H         -10.1312    1.6953    5.7347 H       1  UNL1        0.0356
     59 H         -11.6717   -0.9496    5.2880 H       1  UNL1        0.0234
     60 H         -12.1797    0.3475    6.3759 H       1  UNL1        0.0234
     61 H         -12.1256    0.6156    4.6162 H       1  UNL1        0.0234
     62 H          -7.5804    3.0139    2.0199 H       1  UNL1        0.0636
     63 H          -6.3504    2.5488   -0.0475 H       1  UNL1        0.0621
     64 H          -1.6622   -1.4981   -0.2991 H       1  UNL1        0.0851
@<TRIPOS>BOND
     1     1     2    1
     2     2     3    1
     3     2     4    1
     4     4     5   ar
     5     5     6   ar
     6     6     7   ar
     7     7     8    1
     8     8     9    1
     9     9    10    1
    10    10    11    1
    11    11    12    1
    12    12    13    1
    13    13    14    1
    14     9    14    1
    15     7    15   ar
    16    15    16   ar
    17    16    17    1
    18    17    18    1
    19    18    19    1
    20    19    20   ar
    21    20    21   ar
    22    21    22   ar
    23    22    23    1
    24    23    24   am
    25    24    25    1
    26    25    26    1
    27    24    27    2
    28    22    28   ar
    29    28    29   ar
    30    19    29   ar
    31    16    30   ar
    32     5    30   ar
    33    30    31   ar
    34    31    32   ar
    35     4    32   ar
    36     1    33    1
    37     1    34    1
    38     1    35    1
    39     2    36    1
    40     3    37    1
    41     3    38    1
    42     3    39    1
    43     8    40    1
    44     9    41    1
    45    10    42    1
    46    10    43    1
    47    11    44    1
    48    11    45    1
    49    12    46    1
    50    13    47    1
    51    13    48    1
    52    14    49    1
    53    14    50    1
    54    17    51    1
    55    18    52    1
    56    18    53    1
    57    20    54    1
    58    21    55    1
    59    23    56    1
    60    25    57    1
    61    25    58    1
    62    26    59    1
    63    26    60    1
    64    26    61    1
    65    28    62    1
    66    29    63    1
    67    32    64    1
