@<TRIPOS>MOLECULE
*****
 63 66 0 0 0
SMALL
GASTEIGER

@<TRIPOS>ATOM
      1 C           0.9893   -0.0838   -0.0422 C.3     1  UNL1       -0.0585
      2 C           0.4641   -1.5149    0.1106 C.3     1  UNL1       -0.0165
      3 C           0.9699   -2.1222    1.4194 C.3     1  UNL1       -0.0585
      4 C          -1.0237   -1.5378    0.0778 C.ar    1  UNL1        0.0193
      5 C          -1.8670   -2.4205   -0.5632 C.ar    1  UNL1        0.1659
      6 N          -1.6819   -3.5005   -1.3422 N.ar    1  UNL1       -0.1949
      7 C          -2.7284   -4.1425   -1.7923 C.ar    1  UNL1        0.2203
      8 N          -2.5381   -5.2463   -2.5851 N.pl3   1  UNL1       -0.3103
      9 C          -1.2334   -5.7836   -2.9715 C.3     1  UNL1        0.0275
     10 C          -0.4397   -6.2398   -1.7419 C.3     1  UNL1       -0.0109
     11 C           1.0019   -6.5662   -2.0885 C.3     1  UNL1        0.0493
     12 O           1.6206   -5.4964   -2.7979 O.3     1  UNL1       -0.3796
     13 C           0.9792   -5.2286   -4.0418 C.3     1  UNL1        0.0493
     14 C          -0.4563   -4.7816   -3.8317 C.3     1  UNL1       -0.0109
     15 N          -4.0340   -3.7736   -1.5068 N.ar    1  UNL1       -0.1811
     16 C          -4.2464   -2.7241   -0.7457 C.ar    1  UNL1        0.2214
     17 N          -5.5346   -2.3480   -0.4250 N.pl3   1  UNL1       -0.3092
     18 C          -5.9799   -1.2210    0.3774 C.3     1  UNL1        0.0370
     19 C          -6.6846   -0.1895   -0.4605 C.ar    1  UNL1       -0.0302
     20 C          -7.6779   -0.5948   -1.3359 C.ar    1  UNL1       -0.0553
     21 C          -8.3267    0.3337   -2.1290 C.ar    1  UNL1       -0.0402
     22 C          -8.0480    1.7001   -2.0712 C.ar    1  UNL1        0.0334
     23 N          -8.7358    2.6206   -2.9098 N.am    1  UNL1       -0.2855
     24 C          -9.7134    2.2558   -3.8252 C.2     1  UNL1        0.2169
     25 C         -10.3163    3.3544   -4.6557 C.3     1  UNL1        0.0215
     26 C         -10.1089    3.0174   -6.1273 C.3     1  UNL1       -0.0570
     27 O         -10.1396    1.1118   -4.0280 O.2     1  UNL1       -0.2755
     28 C          -7.0699    2.1283   -1.1653 C.ar    1  UNL1       -0.0402
     29 C          -6.3942    1.1846   -0.3643 C.ar    1  UNL1       -0.0553
     30 N          -3.1311   -2.0190   -0.2641 N.ar    1  UNL1       -0.1831
     31 N          -3.1694   -0.9274    0.5272 N.ar    1  UNL1       -0.1702
     32 C          -1.8920   -0.6454    0.7384 C.ar    1  UNL1        0.0554
     33 H           0.6606    0.5556    0.7865 H       1  UNL1        0.0235
     34 H           0.6221    0.3703   -0.9698 H       1  UNL1        0.0235
     35 H           2.0820   -0.0678   -0.0570 H       1  UNL1        0.0235
     36 H           0.8489   -2.1116   -0.7261 H       1  UNL1        0.0345
     37 H           0.6170   -1.5489    2.2855 H       1  UNL1        0.0235
     38 H           0.6107   -3.1505    1.5397 H       1  UNL1        0.0235
     39 H           2.0631   -2.1348    1.4439 H       1  UNL1        0.0235
     40 H          -3.3685   -5.7116   -2.9264 H       1  UNL1        0.1492
     41 H          -1.4051   -6.6747   -3.5928 H       1  UNL1        0.0500
     42 H          -0.4157   -5.4544   -0.9820 H       1  UNL1        0.0305
     43 H          -0.9267   -7.1017   -1.2714 H       1  UNL1        0.0305
     44 H           1.5687   -6.7198   -1.1638 H       1  UNL1        0.0560
     45 H           1.0747   -7.4860   -2.6779 H       1  UNL1        0.0560
     46 H           1.0338   -6.1170   -4.6799 H       1  UNL1        0.0560
     47 H           1.5396   -4.4292   -4.5382 H       1  UNL1        0.0560
     48 H          -0.9569   -4.6356   -4.7960 H       1  UNL1        0.0305
     49 H          -0.4264   -3.7998   -3.3509 H       1  UNL1        0.0305
     50 H          -6.2565   -2.9057   -0.8618 H       1  UNL1        0.1492
     51 H          -6.6539   -1.5831    1.1601 H       1  UNL1        0.0512
     52 H          -5.2008   -0.7110    0.9269 H       1  UNL1        0.0512
     53 H          -7.9610   -1.6368   -1.4410 H       1  UNL1        0.0621
     54 H          -9.0572   -0.0909   -2.7996 H       1  UNL1        0.0636
     55 H          -8.4808    3.5984   -2.8271 H       1  UNL1        0.1548
     56 H         -11.3909    3.3559   -4.4326 H       1  UNL1        0.0356
     57 H          -9.9152    4.3381   -4.4065 H       1  UNL1        0.0356
     58 H         -10.5009    2.0214   -6.3721 H       1  UNL1        0.0234
     59 H         -10.6196    3.7398   -6.7679 H       1  UNL1        0.0234
     60 H          -9.0425    3.0114   -6.3755 H       1  UNL1        0.0234
     61 H          -6.8015    3.1774   -1.0601 H       1  UNL1        0.0636
     62 H          -5.6278    1.5237    0.3335 H       1  UNL1        0.0621
     63 H          -1.6425    0.2012    1.3637 H       1  UNL1        0.0851
@<TRIPOS>BOND
     1     1     2    1
     2     2     3    1
     3     2     4    1
     4     4     5   ar
     5     5     6   ar
     6     6     7   ar
     7     7     8    1
     8     8     9    1
     9     9    10    1
    10    10    11    1
    11    11    12    1
    12    12    13    1
    13    13    14    1
    14     9    14    1
    15     7    15   ar
    16    15    16   ar
    17    16    17    1
    18    17    18    1
    19    18    19    1
    20    19    20   ar
    21    20    21   ar
    22    21    22   ar
    23    22    23    1
    24    23    24   am
    25    24    25    1
    26    25    26    1
    27    24    27    2
    28    22    28   ar
    29    28    29   ar
    30    19    29   ar
    31    16    30   ar
    32     5    30   ar
    33    30    31   ar
    34    31    32   ar
    35     4    32   ar
    36     1    33    1
    37     1    34    1
    38     1    35    1
    39     2    36    1
    40     3    37    1
    41     3    38    1
    42     3    39    1
    43     8    40    1
    44     9    41    1
    45    10    42    1
    46    10    43    1
    47    11    44    1
    48    11    45    1
    49    13    46    1
    50    13    47    1
    51    14    48    1
    52    14    49    1
    53    17    50    1
    54    18    51    1
    55    18    52    1
    56    20    53    1
    57    21    54    1
    58    23    55    1
    59    25    56    1
    60    25    57    1
    61    26    58    1
    62    26    59    1
    63    26    60    1
    64    28    61    1
    65    29    62    1
    66    32    63    1
