@<TRIPOS>MOLECULE
*****
 62 64 0 0 0
SMALL
GASTEIGER

@<TRIPOS>ATOM
      1 C           0.9892   -0.0662    0.0802 C.3     1  UNL1       -0.0585
      2 C           0.4672    1.2746    0.6060 C.3     1  UNL1       -0.0165
      3 C           0.9724    2.4174   -0.2747 C.3     1  UNL1       -0.0585
      4 C          -1.0208    1.2880    0.6539 C.ar    1  UNL1        0.0193
      5 C          -1.8532    1.7949    1.6325 C.ar    1  UNL1        0.1659
      6 N          -1.6485    2.4062    2.8214 N.ar    1  UNL1       -0.1949
      7 C          -2.6967    2.7546    3.5213 C.ar    1  UNL1        0.2203
      8 N          -2.5257    3.3485    4.7480 N.pl3   1  UNL1       -0.3083
      9 CA         -1.2279    3.6715    5.3565 C.3     1  UNL1        0.0461
     10 C          -1.0715    5.1880    5.5766 C.3     1  UNL1       -0.0352
     11 C          -2.0565    5.7733    6.5833 C.3     1  UNL1       -0.0635
     12 C          -1.0437    2.9168    6.6902 C.3     1  UNL1        0.0626
     13 O          -1.1949    1.5122    6.5321 O.3     1  UNL1       -0.3932
     14 N          -4.0086    2.5499    3.1038 N.ar    1  UNL1       -0.1811
     15 C          -4.2402    1.9652    1.9488 C.ar    1  UNL1        0.2214
     16 N          -5.5417    1.7609    1.5113 N.pl3   1  UNL1       -0.3092
     17 C          -6.0079    1.1666    0.2744 C.3     1  UNL1        0.0370
     18 C          -6.7462   -0.1183    0.5333 C.ar    1  UNL1       -0.0302
     19 C          -6.0700   -1.3162    0.3255 C.ar    1  UNL1       -0.0553
     20 C          -6.7106   -2.5291    0.5214 C.ar    1  UNL1       -0.0402
     21 C          -8.0367   -2.6092    0.9456 C.ar    1  UNL1        0.0334
     22 N          -8.6649   -3.8701    1.1556 N.am    1  UNL1       -0.2855
     23 C          -8.0358   -5.0954    0.9781 C.2     1  UNL1        0.2169
     24 C          -8.8611   -6.3304    1.2221 C.3     1  UNL1        0.0215
     25 C          -8.8570   -7.1753   -0.0465 C.3     1  UNL1       -0.0570
     26 O          -6.8606   -5.2733    0.6326 O.2     1  UNL1       -0.2755
     27 C          -8.7269   -1.4053    1.1570 C.ar    1  UNL1       -0.0402
     28 C          -8.0823   -0.1665    0.9498 C.ar    1  UNL1       -0.0553
     29 N          -3.1249    1.5687    1.1890 N.ar    1  UNL1       -0.1831
     30 N          -3.1723    0.9573   -0.0131 N.ar    1  UNL1       -0.1702
     31 C          -1.8967    0.7936   -0.3355 C.ar    1  UNL1        0.0554
     32 H           0.6602   -0.2502   -0.9500 H       1  UNL1        0.0235
     33 H           0.6220   -0.8969    0.6937 H       1  UNL1        0.0235
     34 H           2.0821   -0.0884    0.0859 H       1  UNL1        0.0235
     35 H           0.8554    1.4158    1.6225 H       1  UNL1        0.0345
     36 H           0.6183    2.3090   -1.3072 H       1  UNL1        0.0235
     37 H           0.6131    3.3849    0.0941 H       1  UNL1        0.0235
     38 H           2.0655    2.4402   -0.2909 H       1  UNL1        0.0235
     39 H          -3.3698    3.6315    5.2262 H       1  UNL1        0.1493
     40 HA         -0.4202    3.3499    4.6874 H       1  UNL1        0.0521
     41 H          -0.0532    5.3905    5.9377 H       1  UNL1        0.0281
     42 H          -1.1738    5.7191    4.6230 H       1  UNL1        0.0281
     43 H          -1.9333    5.3299    7.5757 H       1  UNL1        0.0230
     44 H          -1.8977    6.8492    6.6967 H       1  UNL1        0.0230
     45 H          -3.0884    5.6121    6.2606 H       1  UNL1        0.0230
     46 H1         -0.0432    3.1106    7.0950 H       1  UNL1        0.0575
     47 H2         -1.7738    3.2268    7.4420 H       1  UNL1        0.0575
     48 H          -2.0455    1.3908    6.0711 H       1  UNL1        0.2095
     49 H          -6.2663    2.0419    2.1577 H       1  UNL1        0.1492
     50 H          -6.6477    1.8679   -0.2697 H       1  UNL1        0.0512
     51 H          -5.2335    0.9391   -0.4525 H       1  UNL1        0.0512
     52 H          -5.0333   -1.3364   -0.0059 H       1  UNL1        0.0621
     53 H          -6.1029   -3.3990    0.3198 H       1  UNL1        0.0636
     54 H          -9.6306   -3.8576    1.4639 H       1  UNL1        0.1548
     55 H          -8.3617   -6.8852    2.0269 H       1  UNL1        0.0356
     56 H          -9.8767   -6.0998    1.5485 H       1  UNL1        0.0356
     57 H          -7.8346   -7.3968   -0.3797 H       1  UNL1        0.0234
     58 H          -9.3643   -8.1288    0.1176 H       1  UNL1        0.0234
     59 H          -9.3528   -6.6441   -0.8655 H       1  UNL1        0.0234
     60 H          -9.7650   -1.3918    1.4803 H       1  UNL1        0.0636
     61 H          -8.6255    0.7637    1.1036 H       1  UNL1        0.0621
     62 H          -1.6524    0.3195   -1.2778 H       1  UNL1        0.0851
@<TRIPOS>BOND
     1     1     2    1
     2     2     3    1
     3     2     4    1
     4     4     5   ar
     5     5     6   ar
     6     6     7   ar
     7     7     8    1
     8     8     9    1
     9     9    10    1
    10    10    11    1
    11     9    12    1
    12    12    13    1
    13     7    14   ar
    14    14    15   ar
    15    15    16    1
    16    16    17    1
    17    17    18    1
    18    18    19   ar
    19    19    20   ar
    20    20    21   ar
    21    21    22    1
    22    22    23   am
    23    23    24    1
    24    24    25    1
    25    23    26    2
    26    21    27   ar
    27    27    28   ar
    28    18    28   ar
    29    15    29   ar
    30     5    29   ar
    31    29    30   ar
    32    30    31   ar
    33     4    31   ar
    34     1    32    1
    35     1    33    1
    36     1    34    1
    37     2    35    1
    38     3    36    1
    39     3    37    1
    40     3    38    1
    41     8    39    1
    42     9    40    1
    43    10    41    1
    44    10    42    1
    45    11    43    1
    46    11    44    1
    47    11    45    1
    48    12    46    1
    49    12    47    1
    50    13    48    1
    51    16    49    1
    52    17    50    1
    53    17    51    1
    54    19    52    1
    55    20    53    1
    56    22    54    1
    57    24    55    1
    58    24    56    1
    59    25    57    1
    60    25    58    1
    61    25    59    1
    62    27    60    1
    63    28    61    1
    64    31    62    1
