@<TRIPOS>MOLECULE
*****
 62 64 0 0 0
SMALL
GASTEIGER

@<TRIPOS>ATOM
      1 C           4.7038   -1.0797   -9.2167 C.3     1  UNL1       -0.0585
      2 C           3.1950   -1.3260   -9.3189 C.3     1  UNL1       -0.0165
      3 C           2.6246   -0.5654  -10.5182 C.3     1  UNL1       -0.0585
      4 C           2.9053   -2.7833   -9.4375 C.ar    1  UNL1        0.0193
      5 C           1.9500   -3.5435   -8.7927 C.ar    1  UNL1        0.1659
      6 N           0.9973   -3.2871   -7.8819 N.ar    1  UNL1       -0.1949
      7 C           0.1337   -4.2110   -7.5609 C.ar    1  UNL1        0.2203
      8 N          -0.9368   -3.8734   -6.7564 N.pl3   1  UNL1       -0.3083
      9 CA         -1.1697   -2.5269   -6.1746 C.3     1  UNL1        0.0461
     10 C          -2.6009   -2.4426   -5.5378 C.3     1  UNL1       -0.0352
     11 C          -3.5957   -1.4792   -6.1944 C.3     1  UNL1       -0.0635
     12 C          -0.9290   -1.4035   -7.2256 C.3     1  UNL1        0.0626
     13 O          -0.8646   -0.0809   -6.7040 O.3     1  UNL1       -0.3932
     14 N           0.2313   -5.5162   -8.0226 N.ar    1  UNL1       -0.1811
     15 C           1.1853   -5.8197   -8.8764 C.ar    1  UNL1        0.2214
     16 N           1.3206   -7.1073   -9.3490 N.pl3   1  UNL1       -0.3092
     17 C           2.2999   -7.6094  -10.2831 C.3     1  UNL1        0.0370
     18 C           3.1733   -8.6382   -9.6331 C.ar    1  UNL1       -0.0302
     19 C           2.8902   -9.9626   -9.9077 C.ar    1  UNL1       -0.0553
     20 C           3.6798  -10.9611   -9.3756 C.ar    1  UNL1       -0.0402
     21 C           4.7761  -10.6978   -8.5530 C.ar    1  UNL1        0.0334
     22 N           5.5572  -11.7626   -8.0224 N.am    1  UNL1       -0.2855
     23 C           5.3013  -13.1094   -8.2781 C.2     1  UNL1        0.2169
     24 C           6.2018  -14.1091   -7.5986 C.3     1  UNL1        0.0215
     25 C           5.3352  -15.0457   -6.7652 C.3     1  UNL1       -0.0570
     26 O           4.4182  -13.5634   -8.9940 O.2     1  UNL1       -0.2755
     27 C           5.0736   -9.3563   -8.2690 C.ar    1  UNL1       -0.0402
     28 C           4.2705   -8.3290   -8.8093 C.ar    1  UNL1       -0.0553
     29 N           2.0624   -4.7994   -9.2915 N.ar    1  UNL1       -0.1831
     30 N           3.0724   -4.9268  -10.1769 N.ar    1  UNL1       -0.1702
     31 C           3.5747   -3.7038  -10.2689 C.ar    1  UNL1        0.0554
     32 H           5.2277   -1.4128  -10.1213 H       1  UNL1        0.0235
     33 H           5.1320   -1.6287   -8.3704 H       1  UNL1        0.0235
     34 H           4.9188   -0.0162   -9.0849 H       1  UNL1        0.0235
     35 H           2.7225   -0.9429   -8.4061 H       1  UNL1        0.0345
     36 H           3.0782   -0.9039  -11.4579 H       1  UNL1        0.0235
     37 H           1.5428   -0.7172  -10.6034 H       1  UNL1        0.0235
     38 H           2.8129    0.5082  -10.4214 H       1  UNL1        0.0235
     39 H          -1.4584   -4.6568   -6.3822 H       1  UNL1        0.1493
     40 HA         -0.4568   -2.3959   -5.3474 H       1  UNL1        0.0521
     41 H          -3.0725   -3.4327   -5.5104 H       1  UNL1        0.0281
     42 H          -2.4998   -2.1385   -4.4858 H       1  UNL1        0.0281
     43 H          -3.6711   -1.6558   -7.2703 H       1  UNL1        0.0230
     44 H          -4.5951   -1.5808   -5.7645 H       1  UNL1        0.0230
     45 H          -3.3376   -0.4330   -6.0258 H       1  UNL1        0.0230
     46 H1          0.0352   -1.4769   -7.7034 H       1  UNL1        0.0575
     47 H2         -1.6550   -1.4878   -8.0422 H       1  UNL1        0.0575
     48 H          -1.6970    0.1605   -6.2862 H       1  UNL1        0.2095
     49 H           0.6791   -7.7899   -8.9648 H       1  UNL1        0.1492
     50 H           1.7670   -8.0390  -11.1402 H       1  UNL1        0.0512
     51 H           2.9709   -6.9039  -10.7549 H       1  UNL1        0.0512
     52 H           2.0640  -10.2434  -10.5538 H       1  UNL1        0.0621
     53 H           3.3754  -11.9567   -9.6556 H       1  UNL1        0.0636
     54 H           6.3336  -11.5122   -7.4232 H       1  UNL1        0.1548
     55 H           6.6843  -14.6816   -8.4010 H       1  UNL1        0.0356
     56 H           6.9812  -13.6385   -6.9983 H       1  UNL1        0.0356
     57 H           4.5432  -15.5080   -7.3691 H       1  UNL1        0.0234
     58 H           5.9348  -15.8514   -6.3355 H       1  UNL1        0.0234
     59 H           4.8416  -14.4977   -5.9560 H       1  UNL1        0.0234
     60 H           5.9170   -9.0749   -7.6418 H       1  UNL1        0.0636
     61 H           4.5098   -7.2849   -8.6025 H       1  UNL1        0.0621
     62 H           4.4110   -3.5302  -10.9341 H       1  UNL1        0.0851
@<TRIPOS>BOND
     1     1     2    1
     2     2     3    1
     3     2     4    1
     4     4     5   ar
     5     5     6   ar
     6     6     7   ar
     7     7     8    1
     8    10    11    1
     9     9    12    1
    10    12    13    1
    11     7    14   ar
    12    14    15   ar
    13    15    16    1
    14    16    17    1
    15    17    18    1
    16    18    19   ar
    17    19    20   ar
    18    20    21   ar
    19    21    22    1
    20    22    23   am
    21    23    24    1
    22    24    25    1
    23    23    26    2
    24    21    27   ar
    25    27    28   ar
    26    18    28   ar
    27    15    29   ar
    28     5    29   ar
    29    29    30   ar
    30    30    31   ar
    31     4    31   ar
    32     1    32    1
    33     1    33    1
    34     1    34    1
    35     2    35    1
    36     3    36    1
    37     3    37    1
    38     3    38    1
    39     8    39    1
    40     9    40    1
    41    10    41    1
    42    10    42    1
    43    11    43    1
    44    11    44    1
    45    11    45    1
    46    12    46    1
    47    12    47    1
    48    13    48    1
    49    16    49    1
    50    17    50    1
    51    17    51    1
    52    19    52    1
    53    20    53    1
    54    22    54    1
    55    24    55    1
    56    24    56    1
    57    25    57    1
    58    25    58    1
    59    25    59    1
    60    27    60    1
    61    28    61    1
    62    31    62    1
    63     9    10    1
    64     9     8    1
