@<TRIPOS>MOLECULE
*****
 60 62 0 0 0
SMALL
GASTEIGER

@<TRIPOS>ATOM
      1 C           0.9773    0.0621    0.0024 C.3     0  UNK0       -0.0585
      2 C           0.4559    1.3991    0.5393 C.3     0  UNK0       -0.0165
      3 C           0.9608    2.5478   -0.3340 C.3     0  UNK0       -0.0585
      4 C          -1.0324    1.4132    0.5900 C.ar    0  UNK0        0.0193
      5 C          -1.8656    1.9153    1.5714 C.ar    0  UNK0        0.1659
      6 N          -1.6640    2.5254    2.7624 N.ar    0  UNK0       -0.1949
      7 C          -2.7141    2.8666    3.4635 C.ar    0  UNK0        0.2204
      8 N          -2.5442    3.4671    4.6877 N.pl3   1  SER1       -0.3061
      9 CA         -1.2348    3.7681    5.2959 C.3     1  SER1        0.0694
     10 CB         -1.0661    5.2811    5.5199 C.3     1  SER1        0.0647
     11 OG         -2.0027    5.7819    6.4749 O.3     1  SER1       -0.3931
     12 C          -1.0691    3.0328    6.6397 C.3     1  SER1        0.0647
     13 O          -1.2248    1.6246    6.4932 O.3     1  SER1       -0.3931
     14 N          -4.0242    2.6571    3.0467 N.ar    0  UNK0       -0.1811
     15 C          -4.2535    2.0795    1.8873 C.ar    0  UNK0        0.2214
     16 N          -5.5541    1.8772    1.4468 N.pl3   0  UNK0       -0.3092
     17 C          -6.0187    1.2923    0.2045 C.3     0  UNK0        0.0370
     18 C          -6.7581    0.0063    0.4540 C.ar    0  UNK0       -0.0302
     19 C          -6.0784   -1.1907    0.2522 C.ar    0  UNK0       -0.0553
     20 C          -6.7201   -2.4043    0.4398 C.ar    0  UNK0       -0.0402
     21 C          -8.0507   -2.4861    0.8497 C.ar    0  UNK0        0.0334
     22 N          -8.6803   -3.7476    1.0513 N.am    0  UNK0       -0.2855
     23 C          -8.0483   -4.9723    0.8791 C.2     0  UNK0        0.2169
     24 C          -8.8754   -6.2082    1.1128 C.3     0  UNK0        0.0215
     25 C          -8.8571   -7.0516   -0.1566 C.3     0  UNK0       -0.0570
     26 O          -6.8694   -5.1487    0.5464 O.2     0  UNK0       -0.2755
     27 C          -8.7442   -1.2830    1.0551 C.ar    0  UNK0       -0.0402
     28 C          -8.0984   -0.0435    0.8563 C.ar    0  UNK0       -0.0553
     29 N          -3.1369    1.6892    1.1258 N.ar    0  UNK0       -0.1831
     30 N          -3.1833    1.0869   -0.0804 N.ar    0  UNK0       -0.1702
     31 C          -1.9078    0.9255   -0.4035 C.ar    0  UNK0        0.0554
     32 H           0.6481   -0.1139   -1.0292 H       0  UNK0        0.0235
     33 H           0.6103   -0.7735    0.6093 H       0  UNK0        0.0235
     34 H           2.0702    0.0394    0.0073 H       0  UNK0        0.0235
     35 H           0.8455    1.5325    1.5562 H       0  UNK0        0.0345
     36 H           0.6065    2.4466   -1.3672 H       0  UNK0        0.0235
     37 H           0.6018    3.5128    0.0414 H       0  UNK0        0.0235
     38 H           2.0540    2.5706   -0.3506 H       0  UNK0        0.0235
     39 H          -3.3852    3.6785    5.2055 H       1  SER1        0.1494
     40 HA         -0.4307    3.4357    4.6296 H       1  SER1        0.0544
     41 HB1        -0.0639    5.4918    5.9115 H       1  SER1        0.0576
     42 HB2        -1.1873    5.8443    4.5896 H       1  SER1        0.0576
     43 H          -2.8885    5.6586    6.0947 H       1  SER1        0.2095
     44 H1         -0.0663    3.2157    7.0441 H       1  SER1        0.0576
     45 H2         -1.7955    3.3717    7.3850 H       1  SER1        0.0576
     46 H          -2.0685    1.4924    6.0240 H       1  SER1        0.2095
     47 H          -6.2804    2.1521    2.0939 H       0  UNK0        0.1492
     48 H          -6.6575    1.9981   -0.3348 H       0  UNK0        0.0512
     49 H          -5.2439    1.0690   -0.5233 H       0  UNK0        0.0512
     50 H          -5.0384   -1.2095   -0.0687 H       0  UNK0        0.0621
     51 H          -6.1098   -3.2736    0.2434 H       0  UNK0        0.0636
     52 H          -9.6493   -3.7364    1.3489 H       0  UNK0        0.1548
     53 H          -8.3843   -6.7635    1.9223 H       0  UNK0        0.0356
     54 H          -9.8946   -5.9787    1.4285 H       0  UNK0        0.0356
     55 H          -7.8310   -7.2720   -0.4790 H       0  UNK0        0.0234
     56 H          -9.3654   -8.0057    0.0010 H       0  UNK0        0.0234
     57 H          -9.3444   -6.5199   -0.9803 H       0  UNK0        0.0234
     58 H          -9.7858   -1.2708    1.3669 H       0  UNK0        0.0636
     59 H          -8.6443    0.8861    1.0051 H       0  UNK0        0.0621
     60 H          -1.6633    0.4584   -1.3495 H       0  UNK0        0.0851
@<TRIPOS>BOND
     1     1     2    1
     2     2     3    1
     3     2     4    1
     4     4     5   ar
     5     5     6   ar
     6     6     7   ar
     7     7     8    1
     8     8     9    1
     9     9    10    1
    10    10    11    1
    11     9    12    1
    12    12    13    1
    13     7    14   ar
    14    14    15   ar
    15    15    16    1
    16    16    17    1
    17    17    18    1
    18    18    19   ar
    19    19    20   ar
    20    20    21   ar
    21    21    22    1
    22    22    23   am
    23    23    24    1
    24    24    25    1
    25    23    26    2
    26    21    27   ar
    27    27    28   ar
    28    18    28   ar
    29    15    29   ar
    30     5    29   ar
    31    29    30   ar
    32    30    31   ar
    33     4    31   ar
    34     1    32    1
    35     1    33    1
    36     1    34    1
    37     2    35    1
    38     3    36    1
    39     3    37    1
    40     3    38    1
    41     8    39    1
    42     9    40    1
    43    10    41    1
    44    10    42    1
    45    11    43    1
    46    12    44    1
    47    12    45    1
    48    13    46    1
    49    16    47    1
    50    17    48    1
    51    17    49    1
    52    19    50    1
    53    20    51    1
    54    22    52    1
    55    24    53    1
    56    24    54    1
    57    25    55    1
    58    25    56    1
    59    25    57    1
    60    27    58    1
    61    28    59    1
    62    31    60    1
