@<TRIPOS>MOLECULE
*****
 77 81 0 0 0
SMALL
GASTEIGER

@<TRIPOS>ATOM
      1 C           1.1032   -0.0605   -0.0783 C.3     1  UNL1       -0.0585
      2 C           0.5760   -0.4363    1.3103 C.3     1  UNL1       -0.0165
      3 C           1.0837    0.5645    2.3498 C.3     1  UNL1       -0.0585
      4 C          -0.9132   -0.4737    1.3208 C.ar    1  UNL1        0.0193
      5 C          -1.7597   -1.3855    1.9161 C.ar    1  UNL1        0.1659
      6 N          -1.5773   -2.5032    2.6396 N.ar    1  UNL1       -0.1949
      7 C          -2.6242   -3.1492    3.0830 C.ar    1  UNL1        0.2203
      8 N          -2.4297   -4.2883    3.8253 N.pl3   1  UNL1       -0.3103
      9 C          -1.1198   -4.8289    4.1949 C.3     1  UNL1        0.0275
     10 C          -0.3406   -3.8358    5.0656 C.3     1  UNL1       -0.0109
     11 C           1.1110   -4.2455    5.2367 C.3     1  UNL1        0.0493
     12 O           1.7284   -4.5090    3.9800 O.3     1  UNL1       -0.3796
     13 C           1.1076   -5.5882    3.2873 C.3     1  UNL1        0.0493
     14 C          -0.3366   -5.2642    2.9517 C.3     1  UNL1       -0.0109
     15 N          -3.9304   -2.7391    2.8543 N.ar    1  UNL1       -0.1811
     16 C          -4.1423   -1.6392    2.1659 C.ar    1  UNL1        0.2214
     17 N          -5.4331   -1.1777    1.9652 N.pl3   1  UNL1       -0.3092
     18 C          -5.8843   -0.0556    1.1489 C.3     1  UNL1        0.0370
     19 C          -6.6370   -0.4887   -0.0824 C.ar    1  UNL1       -0.0302
     20 C          -6.6361   -1.8182   -0.4574 C.ar    1  UNL1       -0.0553
     21 C          -7.2839   -2.2169   -1.6066 C.ar    1  UNL1       -0.0402
     22 C          -7.9577   -1.3320   -2.4520 C.ar    1  UNL1        0.0334
     23 N          -8.6199   -1.8014   -3.6266 N.am    1  UNL1       -0.2853
     24 C          -8.7134   -3.1453   -3.9404 C.2     1  UNL1        0.2204
     25 C          -9.4134   -3.5626   -5.2211 C.3     1  UNL1        0.0387
     26 C          -9.7097   -5.0847   -5.1208 C.3     1  UNL1       -0.0260
     27 C          -8.4410   -5.9434   -5.2409 C.3     1  UNL1        0.0153
     28 N          -7.7514   -5.6172   -6.4780 N.am    1  UNL1       -0.3017
     29 C          -7.4498   -6.5033   -7.4966 C.2     1  UNL1        0.2125
     30 C          -7.8617   -7.9574   -7.3772 C.3     1  UNL1        0.0124
     31 O          -6.8616   -6.1428   -8.5205 O.2     1  UNL1       -0.2759
     32 C          -7.3451   -4.2101   -6.5680 C.3     1  UNL1        0.0153
     33 C          -8.5651   -3.2807   -6.4675 C.3     1  UNL1       -0.0260
     34 O          -8.2628   -4.0530   -3.2313 O.2     1  UNL1       -0.2752
     35 C          -7.9419    0.0219   -2.1049 C.ar    1  UNL1       -0.0402
     36 C          -7.2784    0.4385   -0.9283 C.ar    1  UNL1       -0.0553
     37 N          -3.0238   -0.9494    1.6657 N.ar    1  UNL1       -0.1831
     38 N          -3.0594    0.1814    0.9338 N.ar    1  UNL1       -0.1702
     39 C          -1.7812    0.4650    0.7267 C.ar    1  UNL1        0.0554
     40 H           0.7753    0.9437   -0.3745 H       1  UNL1        0.0235
     41 H           0.7372   -0.7608   -0.8377 H       1  UNL1        0.0235
     42 H           2.1961   -0.0684   -0.0974 H       1  UNL1        0.0235
     43 H           0.9611   -1.4320    1.5646 H       1  UNL1        0.0345
     44 H           0.7316    1.5797    2.1287 H       1  UNL1        0.0235
     45 H           0.7254    0.3054    3.3525 H       1  UNL1        0.0235
     46 H           2.1771    0.5826    2.3701 H       1  UNL1        0.0235
     47 H          -3.2561   -4.7677    4.1560 H       1  UNL1        0.1492
     48 H          -1.2825   -5.7309    4.8032 H       1  UNL1        0.0500
     49 H          -0.3394   -2.8409    4.6131 H       1  UNL1        0.0305
     50 H          -0.8256   -3.7218    6.0421 H       1  UNL1        0.0305
     51 H           1.6627   -3.4254    5.7090 H       1  UNL1        0.0560
     52 H           1.2073   -5.1241    5.8829 H       1  UNL1        0.0560
     53 H           1.1854   -6.5011    3.8870 H       1  UNL1        0.0560
     54 H           1.6668   -5.7520    2.3600 H       1  UNL1        0.0560
     55 H          -0.8221   -6.1242    2.4759 H       1  UNL1        0.0305
     56 H          -0.3257   -4.4685    2.2021 H       1  UNL1        0.0305
     57 H          -6.1620   -1.8040    2.2868 H       1  UNL1        0.1492
     58 H          -6.5219    0.5776    1.7701 H       1  UNL1        0.0512
     59 H          -5.0988    0.5931    0.7840 H       1  UNL1        0.0512
     60 H          -6.1208   -2.5880    0.1090 H       1  UNL1        0.0621
     61 H          -7.1984   -3.2774   -1.7787 H       1  UNL1        0.0636
     62 H          -9.0943   -1.1170   -4.2046 H       1  UNL1        0.1548
     63 H         -10.3635   -3.0174   -5.2730 H       1  UNL1        0.0395
     64 H         -10.2063   -5.3175   -4.1700 H       1  UNL1        0.0288
     65 H         -10.4021   -5.3669   -5.9217 H       1  UNL1        0.0288
     66 H          -7.7119   -5.7837   -4.4408 H       1  UNL1        0.0465
     67 H          -8.7162   -6.9892   -5.1465 H       1  UNL1        0.0465
     68 H          -8.5356   -8.2001   -8.2039 H       1  UNL1        0.0323
     69 H          -6.9685   -8.5856   -7.4429 H       1  UNL1        0.0323
     70 H          -8.3747   -8.2330   -6.4619 H       1  UNL1        0.0323
     71 H          -6.8002   -4.0088   -7.4953 H       1  UNL1        0.0465
     72 H          -6.6522   -4.0103   -5.7406 H       1  UNL1        0.0465
     73 H          -9.1941   -3.4425   -7.3528 H       1  UNL1        0.0288
     74 H          -8.2392   -2.2353   -6.4866 H       1  UNL1        0.0288
     75 H          -8.4244    0.7759   -2.7223 H       1  UNL1        0.0636
     76 H          -7.2440    1.4997   -0.6819 H       1  UNL1        0.0621
     77 H          -1.5303    1.3479    0.1543 H       1  UNL1        0.0851
@<TRIPOS>BOND
     1     1     2    1
     2     2     3    1
     3     2     4    1
     4     4     5   ar
     5     5     6   ar
     6     6     7   ar
     7     7     8    1
     8     8     9    1
     9     9    10    1
    10    10    11    1
    11    11    12    1
    12    12    13    1
    13    13    14    1
    14     9    14    1
    15     7    15   ar
    16    15    16   ar
    17    16    17    1
    18    17    18    1
    19    18    19    1
    20    19    20   ar
    21    20    21   ar
    22    21    22   ar
    23    22    23    1
    24    23    24   am
    25    24    25    1
    26    25    26    1
    27    26    27    1
    28    27    28    1
    29    28    29   am
    30    29    30    1
    31    29    31    2
    32    28    32    1
    33    32    33    1
    34    25    33    1
    35    24    34    2
    36    22    35   ar
    37    35    36   ar
    38    19    36   ar
    39    16    37   ar
    40     5    37   ar
    41    37    38   ar
    42    38    39   ar
    43     4    39   ar
    44     1    40    1
    45     1    41    1
    46     1    42    1
    47     2    43    1
    48     3    44    1
    49     3    45    1
    50     3    46    1
    51     8    47    1
    52     9    48    1
    53    10    49    1
    54    10    50    1
    55    11    51    1
    56    11    52    1
    57    13    53    1
    58    13    54    1
    59    14    55    1
    60    14    56    1
    61    17    57    1
    62    18    58    1
    63    18    59    1
    64    20    60    1
    65    21    61    1
    66    23    62    1
    67    25    63    1
    68    26    64    1
    69    26    65    1
    70    27    66    1
    71    27    67    1
    72    30    68    1
    73    30    69    1
    74    30    70    1
    75    32    71    1
    76    32    72    1
    77    33    73    1
    78    33    74    1
    79    35    75    1
    80    36    76    1
    81    39    77    1
