@<TRIPOS>MOLECULE
*****
 63 66 0 0 0
SMALL
GASTEIGER

@<TRIPOS>ATOM
      1 C           1.1189    0.0541    0.0841 C.3     1  UNL1       -0.0585
      2 C           0.6313    0.1782   -1.3457 C.3     1  UNL1       -0.0165
      3 C           1.0684   -0.9380   -2.2771 C.3     1  UNL1       -0.0585
      4 C          -0.8119    0.1308   -1.2887 C.ar    1  UNL1        0.0193
      5 C          -1.6373    0.9480   -2.0202 C.ar    1  UNL1        0.1677
      6 N          -1.4256    1.9306   -2.9355 N.ar    1  UNL1       -0.1753
      7 C          -2.5355    2.4724   -3.3974 C.ar    1  UNL1        0.3231
      8 O          -2.4888    3.4987   -4.3493 O.3     1  UNL1       -0.4590
      9 C          -3.5687    4.3763   -5.0135 C.3     1  UNL1        0.1057
     10 C          -4.3753    5.1620   -3.9671 C.3     1  UNL1       -0.0028
     11 C          -5.0508    4.1468   -3.1057 C.3     1  UNL1        0.0019
     12 N          -5.8219    3.2453   -4.0541 N.3     1  UNL1       -0.3051
     13 C          -6.4759    2.1915   -3.3702 C.3     1  UNL1       -0.0128
     14 C          -5.0870    2.5291   -5.1400 C.3     1  UNL1        0.0019
     15 C          -4.4820    3.5860   -5.9624 C.3     1  UNL1       -0.0028
     16 N          -3.7514    2.0211   -2.9313 N.ar    1  UNL1       -0.1612
     17 C          -3.9722    1.1072   -2.0533 C.ar    1  UNL1        0.2229
     18 N          -5.1950    0.6712   -1.5729 N.pl3   1  UNL1       -0.3091
     19 C          -5.7455   -0.3401   -0.7571 C.3     1  UNL1        0.0388
     20 C          -6.6641    0.3425    0.2491 C.ar    1  UNL1       -0.0091
     21 C          -7.5023   -0.4382    1.0501 C.ar    1  UNL1        0.0381
     22 N          -7.6265   -1.8341    0.8127 N.am    1  UNL1       -0.2854
     23 C          -8.3412   -2.7059    1.6148 C.2     1  UNL1        0.2141
     24 C          -8.3020   -4.1433    1.1866 C.3     1  UNL1        0.0125
     25 O          -8.9693   -2.4244    2.6196 O.2     1  UNL1       -0.2758
     26 C          -8.1789    0.2029    2.0925 C.ar    1  UNL1       -0.0402
     27 C          -8.0977    1.5770    2.3200 C.ar    1  UNL1       -0.0600
     28 C          -7.3585    2.3726    1.4741 C.ar    1  UNL1       -0.0613
     29 C          -6.6432    1.7605    0.4526 C.ar    1  UNL1       -0.0553
     30 N          -2.8487    0.5229   -1.5822 N.ar    1  UNL1       -0.1830
     31 N          -2.9049   -0.4936   -0.7340 N.ar    1  UNL1       -0.1702
     32 C          -1.6297   -0.7429   -0.5408 C.ar    1  UNL1        0.0554
     33 H           0.7719   -0.8834    0.5345 H       1  UNL1        0.0235
     34 H           0.6973    0.8688    0.6922 H       1  UNL1        0.0235
     35 H           2.2015    0.0881    0.1248 H       1  UNL1        0.0235
     36 H           0.9505    1.1463   -1.7554 H       1  UNL1        0.0345
     37 H           0.6856   -1.9059   -1.9312 H       1  UNL1        0.0235
     38 H           0.6544   -0.7834   -3.2852 H       1  UNL1        0.0235
     39 H           2.1522   -0.9735   -2.3411 H       1  UNL1        0.0235
     40 H          -3.0652    5.1178   -5.6459 H       1  UNL1        0.0735
     41 H          -5.1721    5.7890   -4.3818 H       1  UNL1        0.0313
     42 H          -3.7085    5.8028   -3.3771 H       1  UNL1        0.0313
     43 H          -5.6972    4.5708   -2.3283 H       1  UNL1        0.0428
     44 H          -4.2362    3.8385   -2.4301 H       1  UNL1        0.0428
     45 H          -7.3504    1.6904   -3.7678 H       1  UNL1        0.0391
     46 H          -5.8012    1.3374   -3.4816 H       1  UNL1        0.0391
     47 H          -6.6664    2.5422   -2.3542 H       1  UNL1        0.0391
     48 H          -4.2852    1.8071   -4.9168 H       1  UNL1        0.0428
     49 H          -5.7723    1.8729   -5.6896 H       1  UNL1        0.0428
     50 H          -5.3204    4.1669   -6.3700 H       1  UNL1        0.0313
     51 H          -3.9406    3.1254   -6.7918 H       1  UNL1        0.0313
     52 H          -6.0277    1.1153   -1.8562 H       1  UNL1        0.1492
     53 H          -6.3787   -0.9402   -1.4317 H       1  UNL1        0.0512
     54 H          -5.0448   -1.0056   -0.2704 H       1  UNL1        0.0512
     55 H          -7.1530   -2.2313    0.0119 H       1  UNL1        0.1548
     56 H          -7.8645   -4.7129    2.0118 H       1  UNL1        0.0323
     57 H          -9.3361   -4.4645    1.0331 H       1  UNL1        0.0323
     58 H          -7.7265   -4.3221    0.2779 H       1  UNL1        0.0323
     59 H          -8.7860   -0.3450    2.7982 H       1  UNL1        0.0636
     60 H          -8.6148    2.0006    3.1743 H       1  UNL1        0.0618
     61 H          -7.3019    3.4464    1.6339 H       1  UNL1        0.0618
     62 H          -6.0393    2.4299   -0.1600 H       1  UNL1        0.0621
     63 H          -1.3840   -1.5411    0.1395 H       1  UNL1        0.0851
@<TRIPOS>BOND
     1     1     2    1
     2     2     3    1
     3     2     4    1
     4     4     5   ar
     5     5     6   ar
     6     6     7   ar
     7     7     8    1
     8     8     9    1
     9     9    10    1
    10    10    11    1
    11    11    12    1
    12    12    13    1
    13    12    14    1
    14    14    15    1
    15     9    15    1
    16     7    16   ar
    17    16    17   ar
    18    17    18    1
    19    18    19    1
    20    19    20    1
    21    20    21   ar
    22    21    22    1
    23    22    23   am
    24    23    24    1
    25    23    25    2
    26    21    26   ar
    27    26    27   ar
    28    27    28   ar
    29    28    29   ar
    30    20    29   ar
    31    17    30   ar
    32     5    30   ar
    33    30    31   ar
    34    31    32   ar
    35     4    32   ar
    36     1    33    1
    37     1    34    1
    38     1    35    1
    39     2    36    1
    40     3    37    1
    41     3    38    1
    42     3    39    1
    43     9    40    1
    44    10    41    1
    45    10    42    1
    46    11    43    1
    47    11    44    1
    48    13    45    1
    49    13    46    1
    50    13    47    1
    51    14    48    1
    52    14    49    1
    53    15    50    1
    54    15    51    1
    55    18    52    1
    56    19    53    1
    57    19    54    1
    58    22    55    1
    59    24    56    1
    60    24    57    1
    61    24    58    1
    62    26    59    1
    63    27    60    1
    64    28    61    1
    65    29    62    1
    66    32    63    1
