@<TRIPOS>MOLECULE
*****
 71 75 0 0 0
SMALL
GASTEIGER

@<TRIPOS>ATOM
      1 C           1.0148    0.0246   -0.0845 C.3     1  UNL1       -0.0585
      2 C           0.4871   -0.2291    1.3314 C.3     1  UNL1       -0.0165
      3 C           0.9951    0.8579    2.2803 C.3     1  UNL1       -0.0585
      4 C          -1.0024   -0.2651    1.3450 C.ar    1  UNL1        0.0193
      5 C          -1.8491   -1.1210    2.0182 C.ar    1  UNL1        0.1659
      6 N          -1.6660   -2.1706    2.8372 N.ar    1  UNL1       -0.1949
      7 C          -2.7129   -2.7753    3.3356 C.ar    1  UNL1        0.2203
      8 N          -2.5181   -3.8439    4.1759 N.pl3   1  UNL1       -0.3103
      9 C          -1.2085   -4.3541    4.5869 C.3     1  UNL1        0.0275
     10 C          -0.4246   -3.2922    5.3678 C.3     1  UNL1       -0.0109
     11 C           1.0264   -3.6903    5.5702 C.3     1  UNL1        0.0493
     12 O           1.6403   -4.0618    4.3395 O.3     1  UNL1       -0.3796
     13 C           1.0149   -5.1944    3.7427 C.3     1  UNL1        0.0493
     14 C          -0.4292   -4.8963    3.3840 C.3     1  UNL1       -0.0109
     15 N          -4.0192   -2.3872    3.0721 N.ar    1  UNL1       -0.1811
     16 C          -4.2319   -1.3506    2.2920 C.ar    1  UNL1        0.2214
     17 N          -5.5235   -0.9072    2.0551 N.pl3   1  UNL1       -0.3092
     18 C          -5.9751    0.1371    1.1415 C.3     1  UNL1        0.0370
     19 C          -6.7194   -0.4091   -0.0486 C.ar    1  UNL1       -0.0302
     20 C          -6.6415   -1.7581   -0.3428 C.ar    1  UNL1       -0.0553
     21 C          -7.2735   -2.2661   -1.4550 C.ar    1  UNL1       -0.0402
     22 C          -8.0041   -1.4734   -2.3375 C.ar    1  UNL1        0.0334
     23 N          -8.6493   -2.0562   -3.4616 N.am    1  UNL1       -0.2853
     24 C          -8.6150   -3.4167   -3.7370 C.2     1  UNL1        0.2204
     25 C          -9.2998   -3.9037   -4.9934 C.3     1  UNL1        0.0400
     26 C          -8.9234   -5.3957   -5.1655 C.3     1  UNL1       -0.0183
     27 C          -9.3724   -5.9515   -6.4953 C.3     1  UNL1        0.0484
     28 O          -8.8815   -5.1421   -7.5598 O.3     1  UNL1       -0.3797
     29 C          -9.3603   -3.8026   -7.4860 C.3     1  UNL1        0.0484
     30 C          -8.8724   -3.1144   -6.2220 C.3     1  UNL1       -0.0183
     31 O          -8.1052   -4.2791   -3.0095 O.2     1  UNL1       -0.2752
     32 C          -8.0617   -0.0990   -2.0817 C.ar    1  UNL1       -0.0402
     33 C          -7.4159    0.4285   -0.9423 C.ar    1  UNL1       -0.0553
     34 N          -3.1134   -0.7077    1.7318 N.ar    1  UNL1       -0.1831
     35 N          -3.1491    0.3546    0.9036 N.ar    1  UNL1       -0.1702
     36 C          -1.8707    0.6181    0.6716 C.ar    1  UNL1        0.0554
     37 H           0.6872    0.9993   -0.4668 H       1  UNL1        0.0235
     38 H           0.6489   -0.7389   -0.7804 H       1  UNL1        0.0235
     39 H           2.1077    0.0148   -0.1026 H       1  UNL1        0.0235
     40 H           0.8721   -1.1990    1.6711 H       1  UNL1        0.0345
     41 H           0.6432    1.8501    1.9721 H       1  UNL1        0.0235
     42 H           0.6370    0.6867    3.3017 H       1  UNL1        0.0235
     43 H           2.0886    0.8776    2.2989 H       1  UNL1        0.0235
     44 H          -3.3449   -4.2970    4.5412 H       1  UNL1        0.1492
     45 H          -1.3719   -5.2002    5.2708 H       1  UNL1        0.0500
     46 H          -0.4222   -2.3396    4.8320 H       1  UNL1        0.0305
     47 H          -0.9067   -3.0941    6.3322 H       1  UNL1        0.0305
     48 H           1.5817   -2.8347    5.9700 H       1  UNL1        0.0560
     49 H           1.1217   -4.5110    6.2887 H       1  UNL1        0.0560
     50 H           1.0921   -6.0532    4.4177 H       1  UNL1        0.0560
     51 H           1.5714   -5.4380    2.8313 H       1  UNL1        0.0560
     52 H          -0.9182   -5.7924    2.9843 H       1  UNL1        0.0305
     53 H          -0.4178   -4.1676    2.5690 H       1  UNL1        0.0305
     54 H          -6.2516   -1.5123    2.4169 H       1  UNL1        0.1492
     55 H          -6.6169    0.8205    1.7021 H       1  UNL1        0.0512
     56 H          -5.1909    0.7540    0.7223 H       1  UNL1        0.0512
     57 H          -6.0777   -2.4600    0.2633 H       1  UNL1        0.0621
     58 H          -7.1336   -3.3281   -1.5721 H       1  UNL1        0.0636
     59 H          -9.1523   -1.4313   -4.0802 H       1  UNL1        0.1548
     60 H         -10.3838   -3.8271   -4.8425 H       1  UNL1        0.0396
     61 H          -7.8288   -5.4996   -5.1067 H       1  UNL1        0.0295
     62 H          -9.3386   -5.9981   -4.3466 H       1  UNL1        0.0295
     63 H          -8.9701   -6.9622   -6.6237 H       1  UNL1        0.0560
     64 H         -10.4641   -6.0166   -6.5446 H       1  UNL1        0.0560
     65 H         -10.4552   -3.8043   -7.5336 H       1  UNL1        0.0560
     66 H          -8.9858   -3.2651   -8.3612 H       1  UNL1        0.0560
     67 H          -9.2653   -2.0931   -6.1818 H       1  UNL1        0.0295
     68 H          -7.7772   -3.0416   -6.2399 H       1  UNL1        0.0295
     69 H          -8.5864    0.5862   -2.7441 H       1  UNL1        0.0636
     70 H          -7.4396    1.5033   -0.7628 H       1  UNL1        0.0621
     71 H          -1.6198    1.4475    0.0241 H       1  UNL1        0.0851
@<TRIPOS>BOND
     1     1     2    1
     2     2     3    1
     3     2     4    1
     4     4     5   ar
     5     5     6   ar
     6     6     7   ar
     7     7     8    1
     8     8     9    1
     9     9    10    1
    10    10    11    1
    11    11    12    1
    12    12    13    1
    13    13    14    1
    14     9    14    1
    15     7    15   ar
    16    15    16   ar
    17    16    17    1
    18    17    18    1
    19    18    19    1
    20    19    20   ar
    21    20    21   ar
    22    21    22   ar
    23    22    23    1
    24    23    24   am
    25    24    25    1
    26    25    26    1
    27    26    27    1
    28    27    28    1
    29    28    29    1
    30    29    30    1
    31    25    30    1
    32    24    31    2
    33    22    32   ar
    34    32    33   ar
    35    19    33   ar
    36    16    34   ar
    37     5    34   ar
    38    34    35   ar
    39    35    36   ar
    40     4    36   ar
    41     1    37    1
    42     1    38    1
    43     1    39    1
    44     2    40    1
    45     3    41    1
    46     3    42    1
    47     3    43    1
    48     8    44    1
    49     9    45    1
    50    10    46    1
    51    10    47    1
    52    11    48    1
    53    11    49    1
    54    13    50    1
    55    13    51    1
    56    14    52    1
    57    14    53    1
    58    17    54    1
    59    18    55    1
    60    18    56    1
    61    20    57    1
    62    21    58    1
    63    23    59    1
    64    25    60    1
    65    26    61    1
    66    26    62    1
    67    27    63    1
    68    27    64    1
    69    29    65    1
    70    29    66    1
    71    30    67    1
    72    30    68    1
    73    32    69    1
    74    33    70    1
    75    36    71    1
