@<TRIPOS>MOLECULE
*****
 64 68 0 0 0
SMALL
GASTEIGER

@<TRIPOS>ATOM
      1 C           1.1190   -0.0405   -0.0144 C.3     1  UNL1       -0.0585
      2 C           0.5935    1.2623   -0.6263 C.3     1  UNL1       -0.0165
      3 C           1.1014    1.4057   -2.0612 C.3     1  UNL1       -0.0585
      4 C          -0.8954    1.2980   -0.6041 C.ar    1  UNL1        0.0193
      5 C          -1.7385    2.3475   -0.3025 C.ar    1  UNL1        0.1659
      6 N          -1.5516    3.6294    0.0575 N.ar    1  UNL1       -0.1949
      7 C          -2.5946    4.3880    0.2724 C.ar    1  UNL1        0.2203
      8 N          -2.4030    5.6970    0.6375 N.pl3   1  UNL1       -0.3103
      9 C          -1.0958    6.3086    0.8704 C.3     1  UNL1        0.0275
     10 C          -0.2717    6.3424   -0.4213 C.3     1  UNL1       -0.0109
     11 C           1.1739    6.7225   -0.1566 C.3     1  UNL1        0.0493
     12 O           1.7477    5.9089    0.8627 O.3     1  UNL1       -0.3796
     13 C           1.0818    6.0560    2.1137 C.3     1  UNL1        0.0493
     14 C          -0.3635    5.6079    2.0187 C.3     1  UNL1       -0.0109
     15 N          -3.9000    3.9475    0.1454 N.ar    1  UNL1       -0.1811
     16 C          -4.1182    2.7050   -0.2190 C.ar    1  UNL1        0.2214
     17 N          -5.4161    2.2668   -0.3799 N.pl3   1  UNL1       -0.3092
     18 C          -5.8775    0.9571   -0.7631 C.3     1  UNL1        0.0370
     19 C          -6.5804    0.2495    0.3604 C.ar    1  UNL1       -0.0302
     20 C          -6.4059   -1.1289    0.4277 C.ar    1  UNL1       -0.0553
     21 C          -7.0015   -1.8630    1.4329 C.ar    1  UNL1       -0.0402
     22 C          -7.8017   -1.2720    2.4068 C.ar    1  UNL1        0.0335
     23 N          -8.3834   -2.0614    3.4316 N.am    1  UNL1       -0.2829
     24 C          -8.2201   -3.4415    3.5440 C.2     1  UNL1        0.2544
     25 C          -8.9104   -4.0927    4.6892 C.3     1  UNL1        0.1871
     26 C         -10.3015   -4.6366    4.4980 C.3     1  UNL1       -0.0068
     27 C          -9.1573   -5.5926    4.6526 C.3     1  UNL1       -0.0068
     28 F          -8.5936   -3.5987    5.9516 F       1  UNL1       -0.2320
     29 O          -7.5939   -4.1827    2.7866 O.2     1  UNL1       -0.2720
     30 C          -8.0027    0.1144    2.3407 C.ar    1  UNL1       -0.0402
     31 C          -7.4020    0.8680    1.3119 C.ar    1  UNL1       -0.0553
     32 N          -3.0051    1.8713   -0.4449 N.ar    1  UNL1       -0.1831
     33 N          -3.0435    0.5791   -0.8327 N.ar    1  UNL1       -0.1702
     34 C          -1.7656    0.2375   -0.9290 C.ar    1  UNL1        0.0554
     35 H           0.7897   -0.9157   -0.5884 H       1  UNL1        0.0235
     36 H           0.7534   -0.1662    1.0110 H       1  UNL1        0.0235
     37 H           2.2119   -0.0514    0.0031 H       1  UNL1        0.0235
     38 H           0.9792    2.0995   -0.0309 H       1  UNL1        0.0345
     39 H           0.7491    0.5796   -2.6911 H       1  UNL1        0.0235
     40 H           0.7434    2.3376   -2.5130 H       1  UNL1        0.0235
     41 H           2.1948    1.4087   -2.0871 H       1  UNL1        0.0235
     42 H          -3.2300    6.2371    0.8538 H       1  UNL1        0.1492
     43 H          -1.2553    7.3530    1.1765 H       1  UNL1        0.0500
     44 H          -0.2661    5.3613   -0.9034 H       1  UNL1        0.0305
     45 H          -0.7234    7.0314   -1.1446 H       1  UNL1        0.0305
     46 H           1.7597    6.5708   -1.0696 H       1  UNL1        0.0560
     47 H           1.2655    7.7768    0.1241 H       1  UNL1        0.0560
     48 H           1.1576    7.0950    2.4503 H       1  UNL1        0.0560
     49 H           1.6053    5.4297    2.8438 H       1  UNL1        0.0560
     50 H          -0.8856    5.7795    2.9669 H       1  UNL1        0.0305
     51 H          -0.3539    4.5252    1.8692 H       1  UNL1        0.0305
     52 H          -6.1312    2.9508   -0.1812 H       1  UNL1        0.1492
     53 H          -6.5256    1.0167   -1.6415 H       1  UNL1        0.0512
     54 H          -5.0828    0.2946   -1.0852 H       1  UNL1        0.0512
     55 H          -5.7825   -1.6654   -0.2850 H       1  UNL1        0.0621
     56 H          -6.7803   -2.9187    1.4077 H       1  UNL1        0.0636
     57 H          -8.9302   -1.5851    4.1406 H       1  UNL1        0.1549
     58 H         -11.0016   -4.5570    5.3173 H       1  UNL1        0.0302
     59 H         -10.7459   -4.5360    3.5136 H       1  UNL1        0.0302
     60 H          -8.8381   -6.1580    3.7814 H       1  UNL1        0.0302
     61 H          -9.0547   -6.1413    5.5799 H       1  UNL1        0.0302
     62 H          -8.6096    0.6448    3.0708 H       1  UNL1        0.0636
     63 H          -7.5632    1.9426    1.2702 H       1  UNL1        0.0621
     64 H          -1.5144   -0.7705   -1.2335 H       1  UNL1        0.0851
@<TRIPOS>BOND
     1     1     2    1
     2     2     3    1
     3     2     4    1
     4     4     5   ar
     5     5     6   ar
     6     6     7   ar
     7     7     8    1
     8     8     9    1
     9     9    10    1
    10    10    11    1
    11    11    12    1
    12    12    13    1
    13    13    14    1
    14     9    14    1
    15     7    15   ar
    16    15    16   ar
    17    16    17    1
    18    17    18    1
    19    18    19    1
    20    19    20   ar
    21    20    21   ar
    22    21    22   ar
    23    22    23    1
    24    23    24   am
    25    24    25    1
    26    25    26    1
    27    26    27    1
    28    25    27    1
    29    25    28    1
    30    24    29    2
    31    22    30   ar
    32    30    31   ar
    33    19    31   ar
    34    16    32   ar
    35     5    32   ar
    36    32    33   ar
    37    33    34   ar
    38     4    34   ar
    39     1    35    1
    40     1    36    1
    41     1    37    1
    42     2    38    1
    43     3    39    1
    44     3    40    1
    45     3    41    1
    46     8    42    1
    47     9    43    1
    48    10    44    1
    49    10    45    1
    50    11    46    1
    51    11    47    1
    52    13    48    1
    53    13    49    1
    54    14    50    1
    55    14    51    1
    56    17    52    1
    57    18    53    1
    58    18    54    1
    59    20    55    1
    60    21    56    1
    61    23    57    1
    62    26    58    1
    63    26    59    1
    64    27    60    1
    65    27    61    1
    66    30    62    1
    67    31    63    1
    68    34    64    1
