@<TRIPOS>MOLECULE
*****
 76 79 0 0 0
SMALL
GASTEIGER

@<TRIPOS>ATOM
      1 C           1.0719    0.0986   -0.0480 C.3     1  UNL1       -0.0585
      2 C           0.5531   -1.3201   -0.3013 C.3     1  UNL1       -0.0165
      3 C           1.0548   -2.2684    0.7869 C.3     1  UNL1       -0.0585
      4 C          -0.9323   -1.3415   -0.3464 C.ar    1  UNL1        0.0193
      5 C          -1.7635   -2.0225   -1.2133 C.ar    1  UNL1        0.1659
      6 N          -1.5629   -2.8467   -2.2665 N.ar    1  UNL1       -0.1949
      7 C          -2.6136   -3.3201   -2.8854 C.ar    1  UNL1        0.2203
      8 N          -2.4457   -4.1334   -3.9795 N.pl3   1  UNL1       -0.3083
      9 CA         -1.1487   -4.5666   -4.5171 C.3     1  UNL1        0.0461
     10 C          -0.9928   -6.0973   -4.4477 C.3     1  UNL1       -0.0352
     11 C          -1.9776   -6.8616   -5.3263 C.3     1  UNL1       -0.0635
     12 C          -0.9644   -4.0752   -5.9685 C.3     1  UNL1        0.0626
     13 O          -1.1154   -2.6655   -6.0751 O.3     1  UNL1       -0.3932
     14 N          -3.9238   -3.0384   -2.5089 N.ar    1  UNL1       -0.1811
     15 C          -4.1470   -2.2447   -1.4853 C.ar    1  UNL1        0.2214
     16 N          -5.4375   -1.9510   -1.0784 N.pl3   1  UNL1       -0.3092
     17 C          -5.8770   -1.1088    0.0236 C.3     1  UNL1        0.0370
     18 C          -6.6118    0.1037   -0.4788 C.ar    1  UNL1       -0.0302
     19 C          -7.8037   -0.0821   -1.1578 C.ar    1  UNL1       -0.0553
     20 C          -8.5038    1.0099   -1.6442 C.ar    1  UNL1       -0.0402
     21 C          -8.0618    2.3266   -1.4825 C.ar    1  UNL1        0.0334
     22 N          -8.7877    3.4300   -2.0323 N.am    1  UNL1       -0.2853
     23 C          -9.9442    3.2948   -2.7859 C.2     1  UNL1        0.2204
     24 C         -10.7966    4.5087   -3.1279 C.3     1  UNL1        0.0387
     25 C         -10.2699    5.6524   -3.9884 C.3     1  UNL1       -0.0260
     26 C          -9.5117    6.7039   -3.1991 C.3     1  UNL1        0.0153
     27 N         -10.2926    7.1296   -2.0396 N.am    1  UNL1       -0.3017
     28 C         -10.7394    8.4111   -1.7669 C.2     1  UNL1        0.2125
     29 C         -10.4364    9.5452   -2.7169 C.3     1  UNL1        0.0124
     30 O         -11.3948    8.6663   -0.7436 O.2     1  UNL1       -0.2759
     31 C         -10.6573    6.0440   -1.1290 C.3     1  UNL1        0.0153
     32 C         -11.4876    4.9917   -1.8546 C.3     1  UNL1       -0.0260
     33 O         -10.4473    2.2117   -3.1126 O.2     1  UNL1       -0.2752
     34 C          -6.8800    2.5263   -0.7559 C.ar    1  UNL1       -0.0402
     35 C          -6.1565    1.4177   -0.2652 C.ar    1  UNL1       -0.0553
     36 N          -3.0316   -1.7139   -0.8196 N.ar    1  UNL1       -0.1831
     37 N          -3.0787   -0.8807    0.2405 N.ar    1  UNL1       -0.1702
     38 C          -1.8051   -0.6683    0.5329 C.ar    1  UNL1        0.0554
     39 H           0.7413    0.4806    0.9259 H       1  UNL1        0.0235
     40 H           0.7029    0.7924   -0.8124 H       1  UNL1        0.0235
     41 H           2.1643    0.1208   -0.0578 H       1  UNL1        0.0235
     42 H           0.9407   -1.6575   -1.2704 H       1  UNL1        0.0345
     43 H           0.6993   -1.9596    1.7777 H       1  UNL1        0.0235
     44 H           0.6939   -3.2888    0.6144 H       1  UNL1        0.0235
     45 H           2.1476   -2.2885    0.8083 H       1  UNL1        0.0235
     46 H          -3.2906   -4.5030   -4.3933 H       1  UNL1        0.1493
     47 HA         -0.3404   -4.1256   -3.9207 H       1  UNL1        0.0521
     48 H           0.0255   -6.3642   -4.7640 H       1  UNL1        0.0281
     49 H          -1.0953   -6.4393   -3.4112 H       1  UNL1        0.0281
     50 H          -1.8542   -6.6128   -6.3845 H       1  UNL1        0.0230
     51 H          -1.8185   -7.9396   -5.2351 H       1  UNL1        0.0230
     52 H          -3.0096   -6.6428   -5.0399 H       1  UNL1        0.0230
     53 H1          0.0360   -4.3414   -6.3299 H       1  UNL1        0.0575
     54 H2         -1.6947   -4.5203   -6.6489 H       1  UNL1        0.0575
     55 H          -1.9678   -2.4618   -5.6476 H       1  UNL1        0.2095
     56 H          -6.1709   -2.3541   -1.6478 H       1  UNL1        0.1492
     57 H          -6.5399   -1.6891    0.6761 H       1  UNL1        0.0512
     58 H          -5.1072   -0.7639    0.7012 H       1  UNL1        0.0512
     59 H          -8.2083   -1.0748   -1.3312 H       1  UNL1        0.0621
     60 H          -9.4152    0.7517   -2.1606 H       1  UNL1        0.0636
     61 H          -8.4123    4.3480   -1.8338 H       1  UNL1        0.1548
     62 H         -11.5724    4.0592   -3.7702 H       1  UNL1        0.0395
     63 H          -9.6743    5.2940   -4.8338 H       1  UNL1        0.0288
     64 H         -11.1537    6.1493   -4.4217 H       1  UNL1        0.0288
     65 H          -8.5679    6.2939   -2.8301 H       1  UNL1        0.0465
     66 H          -9.2557    7.5258   -3.8631 H       1  UNL1        0.0465
     67 H         -11.3808    9.9901   -3.0461 H       1  UNL1        0.0323
     68 H          -9.8505   10.3019   -2.1866 H       1  UNL1        0.0323
     69 H          -9.8852    9.2723   -3.6105 H       1  UNL1        0.0323
     70 H         -11.2060    6.3997   -0.2530 H       1  UNL1        0.0465
     71 H          -9.7229    5.6140   -0.7558 H       1  UNL1        0.0465
     72 H         -12.4614    5.4129   -2.1321 H       1  UNL1        0.0288
     73 H         -11.6860    4.1471   -1.1829 H       1  UNL1        0.0288
     74 H          -6.4858    3.5214   -0.5605 H       1  UNL1        0.0636
     75 H          -5.2280    1.5810    0.2835 H       1  UNL1        0.0621
     76 H          -1.5630   -0.0280    1.3714 H       1  UNL1        0.0851
@<TRIPOS>BOND
     1     1     2    1
     2     2     3    1
     3     2     4    1
     4     4     5   ar
     5     5     6   ar
     6     6     7   ar
     7     7     8    1
     8     8     9    1
     9     9    10    1
    10    10    11    1
    11     9    12    1
    12    12    13    1
    13     7    14   ar
    14    14    15   ar
    15    15    16    1
    16    16    17    1
    17    17    18    1
    18    18    19   ar
    19    19    20   ar
    20    20    21   ar
    21    21    22    1
    22    22    23   am
    23    23    24    1
    24    24    25    1
    25    25    26    1
    26    26    27    1
    27    27    28   am
    28    28    29    1
    29    28    30    2
    30    27    31    1
    31    31    32    1
    32    24    32    1
    33    23    33    2
    34    21    34   ar
    35    34    35   ar
    36    18    35   ar
    37    15    36   ar
    38     5    36   ar
    39    36    37   ar
    40    37    38   ar
    41     4    38   ar
    42     1    39    1
    43     1    40    1
    44     1    41    1
    45     2    42    1
    46     3    43    1
    47     3    44    1
    48     3    45    1
    49     8    46    1
    50     9    47    1
    51    10    48    1
    52    10    49    1
    53    11    50    1
    54    11    51    1
    55    11    52    1
    56    12    53    1
    57    12    54    1
    58    13    55    1
    59    16    56    1
    60    17    57    1
    61    17    58    1
    62    19    59    1
    63    20    60    1
    64    22    61    1
    65    24    62    1
    66    25    63    1
    67    25    64    1
    68    26    65    1
    69    26    66    1
    70    29    67    1
    71    29    68    1
    72    29    69    1
    73    31    70    1
    74    31    71    1
    75    32    72    1
    76    32    73    1
    77    34    74    1
    78    35    75    1
    79    38    76    1
