@<TRIPOS>MOLECULE
*****
 70 73 0 0 0
SMALL
GASTEIGER

@<TRIPOS>ATOM
      1 C           0.9805    0.0601    0.0217 C.3     1  UNL1       -0.0585
      2 C           0.4620   -1.3663   -0.1832 C.3     1  UNL1       -0.0165
      3 C           0.9634   -2.2769    0.9368 C.3     1  UNL1       -0.0585
      4 C          -1.0232   -1.3893   -0.2276 C.ar    1  UNL1        0.0193
      5 C          -1.8542   -2.0997   -1.0708 C.ar    1  UNL1        0.1659
      6 N          -1.6535   -2.9596   -2.0950 N.ar    1  UNL1       -0.1949
      7 C          -2.7041   -3.4541   -2.6974 C.ar    1  UNL1        0.2203
      8 N          -2.5364   -4.3048   -3.7626 N.pl3   1  UNL1       -0.3083
      9 CA         -1.2395   -4.7557   -4.2852 C.3     1  UNL1        0.0461
     10 C          -1.0835   -6.2830   -4.1637 C.3     1  UNL1       -0.0352
     11 C          -2.0686   -7.0766   -5.0156 C.3     1  UNL1       -0.0635
     12 C          -1.0554   -4.3143   -5.7526 C.3     1  UNL1        0.0626
     13 O          -1.2060   -2.9091   -5.9075 O.3     1  UNL1       -0.3932
     14 N          -4.0141   -3.1610   -2.3303 N.ar    1  UNL1       -0.1811
     15 C          -4.2369   -2.3339   -1.3334 C.ar    1  UNL1        0.2214
     16 N          -5.5270   -2.0323   -0.9335 N.pl3   1  UNL1       -0.3092
     17 C          -5.9661   -1.1518    0.1375 C.3     1  UNL1        0.0370
     18 C          -6.6975    0.0413   -0.4087 C.ar    1  UNL1       -0.0302
     19 C          -7.8640   -0.1744   -1.1243 C.ar    1  UNL1       -0.0553
     20 C          -8.5652    0.8957   -1.6422 C.ar    1  UNL1       -0.0402
     21 C          -8.1527    2.2135   -1.4572 C.ar    1  UNL1        0.0334
     22 N          -8.8938    3.2879   -2.0051 N.am    1  UNL1       -0.2853
     23 C         -10.0606    3.1483   -2.7407 C.2     1  UNL1        0.2204
     24 C         -10.7263    4.3915   -3.2792 C.3     1  UNL1        0.0400
     25 C         -10.6772    4.3571   -4.8115 C.3     1  UNL1       -0.0183
     26 C         -11.3087    5.6106   -5.3914 C.3     1  UNL1        0.0484
     27 O         -10.7127    6.7804   -4.8311 O.3     1  UNL1       -0.3797
     28 C         -10.9023    6.8646   -3.4198 C.3     1  UNL1        0.0484
     29 C         -10.2083    5.7072   -2.7296 C.3     1  UNL1       -0.0183
     30 O         -10.6178    2.0793   -3.0279 O.2     1  UNL1       -0.2752
     31 C          -6.9867    2.4494   -0.7176 C.ar    1  UNL1       -0.0402
     32 C          -6.2615    1.3623   -0.1977 C.ar    1  UNL1       -0.0553
     33 N          -3.1222   -1.7785   -0.6874 N.ar    1  UNL1       -0.1831
     34 N          -3.1695   -0.9109    0.3448 N.ar    1  UNL1       -0.1702
     35 C          -1.8960   -0.6867    0.6284 C.ar    1  UNL1        0.0554
     36 H           0.6498    0.4750    0.9820 H       1  UNL1        0.0235
     37 H           0.6116    0.7274   -0.7658 H       1  UNL1        0.0235
     38 H           2.0730    0.0820    0.0114 H       1  UNL1        0.0235
     39 H           0.8495   -1.7366   -1.1403 H       1  UNL1        0.0345
     40 H           0.6079   -1.9344    1.9164 H       1  UNL1        0.0235
     41 H           0.6025   -3.3026    0.7992 H       1  UNL1        0.0235
     42 H           2.0562   -2.2963    0.9588 H       1  UNL1        0.0235
     43 H          -3.3815   -4.6869   -4.1647 H       1  UNL1        0.1493
     44 HA         -0.4313   -4.2943   -3.7043 H       1  UNL1        0.0521
     45 H          -0.0653   -6.5605   -4.4708 H       1  UNL1        0.0281
     46 H          -1.1859   -6.5895   -3.1161 H       1  UNL1        0.0281
     47 H          -1.9453   -6.8639   -6.0816 H       1  UNL1        0.0230
     48 H          -1.9097   -8.1509   -4.8880 H       1  UNL1        0.0230
     49 H          -3.1004   -6.8479   -4.7366 H       1  UNL1        0.0230
     50 H1         -0.0550   -4.5929   -6.1046 H       1  UNL1        0.0575
     51 H2         -1.7858   -4.7823   -6.4173 H       1  UNL1        0.0575
     52 H          -2.0590   -2.6904   -5.4886 H       1  UNL1        0.2095
     53 H          -6.2596   -2.4501   -1.4928 H       1  UNL1        0.1492
     54 H          -6.6323   -1.7052    0.8090 H       1  UNL1        0.0512
     55 H          -5.1963   -0.7829    0.8018 H       1  UNL1        0.0512
     56 H          -8.2496   -1.1730   -1.3006 H       1  UNL1        0.0621
     57 H          -9.4485    0.6297   -2.2008 H       1  UNL1        0.0636
     58 H          -8.5185    4.2105   -1.8249 H       1  UNL1        0.1548
     59 H         -11.7811    4.3012   -2.9762 H       1  UNL1        0.0396
     60 H          -9.6325    4.2817   -5.1392 H       1  UNL1        0.0295
     61 H         -11.1941    3.4705   -5.2022 H       1  UNL1        0.0295
     62 H         -11.1545    5.6373   -6.4747 H       1  UNL1        0.0560
     63 H         -12.3902    5.6286   -5.2112 H       1  UNL1        0.0560
     64 H         -11.9732    6.8860   -3.1878 H       1  UNL1        0.0560
     65 H         -10.4611    7.8035   -3.0750 H       1  UNL1        0.0560
     66 H         -10.3656    5.7508   -1.6460 H       1  UNL1        0.0295
     67 H          -9.1326    5.7885   -2.9214 H       1  UNL1        0.0295
     68 H          -6.6144    3.4554   -0.5321 H       1  UNL1        0.0636
     69 H          -5.3518    1.5469    0.3747 H       1  UNL1        0.0621
     70 H          -1.6539   -0.0176    1.4441 H       1  UNL1        0.0851
@<TRIPOS>BOND
     1     1     2    1
     2     2     3    1
     3     2     4    1
     4     4     5   ar
     5     5     6   ar
     6     6     7   ar
     7     7     8    1
     8     8     9    1
     9     9    10    1
    10    10    11    1
    11     9    12    1
    12    12    13    1
    13     7    14   ar
    14    14    15   ar
    15    15    16    1
    16    16    17    1
    17    17    18    1
    18    18    19   ar
    19    19    20   ar
    20    20    21   ar
    21    21    22    1
    22    22    23   am
    23    23    24    1
    24    24    25    1
    25    25    26    1
    26    26    27    1
    27    27    28    1
    28    28    29    1
    29    24    29    1
    30    23    30    2
    31    21    31   ar
    32    31    32   ar
    33    18    32   ar
    34    15    33   ar
    35     5    33   ar
    36    33    34   ar
    37    34    35   ar
    38     4    35   ar
    39     1    36    1
    40     1    37    1
    41     1    38    1
    42     2    39    1
    43     3    40    1
    44     3    41    1
    45     3    42    1
    46     8    43    1
    47     9    44    1
    48    10    45    1
    49    10    46    1
    50    11    47    1
    51    11    48    1
    52    11    49    1
    53    12    50    1
    54    12    51    1
    55    13    52    1
    56    16    53    1
    57    17    54    1
    58    17    55    1
    59    19    56    1
    60    20    57    1
    61    22    58    1
    62    24    59    1
    63    25    60    1
    64    25    61    1
    65    26    62    1
    66    26    63    1
    67    28    64    1
    68    28    65    1
    69    29    66    1
    70    29    67    1
    71    31    68    1
    72    32    69    1
    73    35    70    1
