@<TRIPOS>MOLECULE
*****
 63 66 0 0 0
SMALL
GASTEIGER

@<TRIPOS>ATOM
      1 C           0.9471    0.0358    0.0003 C.3     1  UNL1       -0.0585
      2 C           0.4288    0.8602   -1.1812 C.3     1  UNL1       -0.0165
      3 C           0.9311    0.2670   -2.4971 C.3     1  UNL1       -0.0585
      4 C          -1.0565    0.9117   -1.1837 C.ar    1  UNL1        0.0193
      5 C          -1.8861    1.9844   -1.4444 C.ar    1  UNL1        0.1659
      6 N          -1.6826    3.2855   -1.7529 N.ar    1  UNL1       -0.1949
      7 C          -2.7303    4.0472   -1.9322 C.ar    1  UNL1        0.2203
      8 N          -2.5616    5.3797   -2.2153 N.pl3   1  UNL1       -0.3083
      9 CA         -1.2637    6.0448   -2.3872 C.3     1  UNL1        0.0461
     10 C          -1.1077    6.6175   -3.8080 C.3     1  UNL1       -0.0352
     11 C          -2.0953    7.7330   -4.1341 C.3     1  UNL1       -0.0635
     12 C          -1.0796    7.1627   -1.3395 C.3     1  UNL1        0.0626
     13 O          -1.2348    6.6781   -0.0122 O.3     1  UNL1       -0.3932
     14 N          -4.0407    3.5925   -1.8431 N.ar    1  UNL1       -0.1811
     15 C          -4.2679    2.3311   -1.5553 C.ar    1  UNL1        0.2214
     16 N          -5.5649    1.8566   -1.4824 N.pl3   1  UNL1       -0.3092
     17 C          -6.0202    0.5311   -1.1334 C.3     1  UNL1        0.0370
     18 C          -6.7838    0.4880    0.1620 C.ar    1  UNL1       -0.0302
     19 C          -7.0555   -0.7790    0.6729 C.ar    1  UNL1       -0.0553
     20 C          -7.7675   -0.9230    1.8488 C.ar    1  UNL1       -0.0402
     21 C          -8.2422    0.1749    2.5627 C.ar    1  UNL1        0.0335
     22 N          -8.9889   -0.0040    3.7538 N.am    1  UNL1       -0.2829
     23 C          -9.3269   -1.2455    4.2889 C.2     1  UNL1        0.2544
     24 C         -10.0765   -1.2235    5.5708 C.3     1  UNL1        0.1871
     25 C         -11.4899   -0.7201    5.6355 C.3     1  UNL1       -0.0068
     26 C         -11.2313   -2.1925    5.7580 C.3     1  UNL1       -0.0068
     27 F          -9.2967   -1.0540    6.7120 F       1  UNL1       -0.2320
     28 O          -9.0702   -2.3549    3.8238 O.2     1  UNL1       -0.2720
     29 C          -7.9550    1.4557    2.0726 C.ar    1  UNL1       -0.0402
     30 C          -7.2286    1.6072    0.8770 C.ar    1  UNL1       -0.0553
     31 N          -3.1558    1.4986   -1.3392 N.ar    1  UNL1       -0.1831
     32 N          -3.2040    0.1844   -1.0387 N.ar    1  UNL1       -0.1702
     33 C          -1.9310   -0.1678   -0.9413 C.ar    1  UNL1        0.0554
     34 H           0.6153   -1.0082   -0.0608 H       1  UNL1        0.0235
     35 H           0.5794    0.4401    0.9503 H       1  UNL1        0.0235
     36 H           2.0397    0.0338    0.0230 H       1  UNL1        0.0235
     37 H           0.8167    1.8815   -1.0829 H       1  UNL1        0.0345
     38 H           0.5760   -0.7624   -2.6298 H       1  UNL1        0.0235
     39 H           0.5707    0.8494   -3.3527 H       1  UNL1        0.0235
     40 H           2.0240    0.2559   -2.5233 H       1  UNL1        0.0235
     41 H          -3.4053    5.9104   -2.3832 H       1  UNL1        0.1493
     42 HA         -0.4574    5.3172   -2.2327 H       1  UNL1        0.0521
     43 H          -0.0900    7.0177   -3.9190 H       1  UNL1        0.0281
     44 H          -1.2095    5.8176   -4.5508 H       1  UNL1        0.0281
     45 H          -1.9735    8.5901   -3.4653 H       1  UNL1        0.0230
     46 H          -1.9390    8.1024   -5.1511 H       1  UNL1        0.0230
     47 H          -3.1260    7.3782   -4.0529 H       1  UNL1        0.0230
     48 H1         -0.0789    7.6009   -1.4321 H       1  UNL1        0.0575
     49 H2         -1.8093    7.9665   -1.4641 H       1  UNL1        0.0575
     50 H          -2.0888    6.2078   -0.0052 H       1  UNL1        0.2095
     51 H          -6.2946    2.5339   -1.6554 H       1  UNL1        0.1492
     52 H          -6.6488    0.1370   -1.9396 H       1  UNL1        0.0512
     53 H          -5.2362   -0.2096   -1.0253 H       1  UNL1        0.0512
     54 H          -6.7080   -1.6838    0.1774 H       1  UNL1        0.0621
     55 H          -7.9177   -1.9434    2.1684 H       1  UNL1        0.0636
     56 H          -9.2720    0.8298    4.2566 H       1  UNL1        0.1549
     57 H         -11.7945   -0.1911    6.5282 H       1  UNL1        0.0302
     58 H         -11.9365   -0.3580    4.7176 H       1  UNL1        0.0302
     59 H         -11.5108   -2.8409    4.9335 H       1  UNL1        0.0302
     60 H         -11.3272   -2.6651    6.7283 H       1  UNL1        0.0302
     61 H          -8.2763    2.3576    2.5880 H       1  UNL1        0.0636
     62 H          -7.0016    2.6078    0.5171 H       1  UNL1        0.0621
     63 H          -1.6887   -1.1957   -0.7011 H       1  UNL1        0.0851
@<TRIPOS>BOND
     1     1     2    1
     2     2     3    1
     3     2     4    1
     4     4     5   ar
     5     5     6   ar
     6     6     7   ar
     7     7     8    1
     8     8     9    1
     9     9    10    1
    10    10    11    1
    11     9    12    1
    12    12    13    1
    13     7    14   ar
    14    14    15   ar
    15    15    16    1
    16    16    17    1
    17    17    18    1
    18    18    19   ar
    19    19    20   ar
    20    20    21   ar
    21    21    22    1
    22    22    23   am
    23    23    24    1
    24    24    25    1
    25    25    26    1
    26    24    26    1
    27    24    27    1
    28    23    28    2
    29    21    29   ar
    30    29    30   ar
    31    18    30   ar
    32    15    31   ar
    33     5    31   ar
    34    31    32   ar
    35    32    33   ar
    36     4    33   ar
    37     1    34    1
    38     1    35    1
    39     1    36    1
    40     2    37    1
    41     3    38    1
    42     3    39    1
    43     3    40    1
    44     8    41    1
    45     9    42    1
    46    10    43    1
    47    10    44    1
    48    11    45    1
    49    11    46    1
    50    11    47    1
    51    12    48    1
    52    12    49    1
    53    13    50    1
    54    16    51    1
    55    17    52    1
    56    17    53    1
    57    19    54    1
    58    20    55    1
    59    22    56    1
    60    25    57    1
    61    25    58    1
    62    26    59    1
    63    26    60    1
    64    29    61    1
    65    30    62    1
    66    33    63    1
