@<TRIPOS>MOLECULE
*****
 76 79 0 0 0
SMALL
GASTEIGER

@<TRIPOS>ATOM
      1 C           3.2527  -10.7430    3.1297 C.3     1  UNL1       -0.0585
      2 C           1.8293  -10.2446    3.3930 C.3     1  UNL1       -0.0165
      3 C           0.8133  -11.2955    2.9426 C.3     1  UNL1       -0.0585
      4 C           1.6387   -9.9301    4.8366 C.ar    1  UNL1        0.0193
      5 C           0.9972   -8.8566    5.4134 C.ar    1  UNL1        0.1659
      6 N           0.3637   -7.7794    4.9283 N.ar    1  UNL1       -0.1949
      7 C          -0.1871   -6.9341    5.7498 C.ar    1  UNL1        0.2203
      8 N          -0.8817   -5.8653    5.2459 N.pl3   1  UNL1       -0.3083
      9 CA         -1.1150   -5.5267    3.8306 C.3     1  UNL1        0.0461
     10 C          -2.5512   -4.9737    3.6271 C.3     1  UNL1       -0.0352
     11 C          -3.0953   -4.1143    4.7538 C.3     1  UNL1       -0.0635
     12 C          -0.9482   -6.7355    2.8686 C.3     1  UNL1        0.0626
     13 O          -1.1994   -6.4234    1.5001 O.3     1  UNL1       -0.3932
     14 N          -0.1398   -7.0782    7.1304 N.ar    1  UNL1       -0.1811
     15 C           0.4520   -8.1363    7.6414 C.ar    1  UNL1        0.2214
     16 N           0.4526   -8.3448    9.0090 N.pl3   1  UNL1       -0.3092
     17 C           1.1482   -9.3763    9.7689 C.3     1  UNL1        0.0370
     18 C           2.2907   -8.8345   10.5866 C.ar    1  UNL1       -0.0302
     19 C           2.6436   -7.5020   10.4893 C.ar    1  UNL1       -0.0553
     20 C           3.6947   -7.0057   11.2287 C.ar    1  UNL1       -0.0402
     21 C           4.4544   -7.7929   12.0950 C.ar    1  UNL1        0.0334
     22 N           5.5181   -7.2216   12.8516 N.am    1  UNL1       -0.2853
     23 C           5.8142   -5.8690   12.8311 C.2     1  UNL1        0.2204
     24 C           7.0028   -5.3680   13.6326 C.3     1  UNL1        0.0387
     25 C           7.0916   -3.8276   13.4389 C.3     1  UNL1       -0.0260
     26 C           7.5464   -3.4587   12.0199 C.3     1  UNL1        0.0153
     27 N           8.8231   -4.0997   11.7413 N.am    1  UNL1       -0.3017
     28 C          10.0087   -3.4577   11.4303 C.2     1  UNL1        0.2125
     29 C          10.0504   -1.9455   11.3466 C.3     1  UNL1        0.0124
     30 O          11.0530   -4.0849   11.2251 O.2     1  UNL1       -0.2759
     31 C           8.7732   -5.5626   11.8200 C.3     1  UNL1        0.0153
     32 C           8.3243   -6.0187   13.2145 C.3     1  UNL1       -0.0260
     33 O           5.1530   -5.0163   12.2215 O.2     1  UNL1       -0.2752
     34 C           4.1380   -9.1524   12.1761 C.ar    1  UNL1       -0.0402
     35 C           3.0630   -9.6683   11.4198 C.ar    1  UNL1       -0.0553
     36 N           1.0561   -9.0475    6.7566 N.ar    1  UNL1       -0.1831
     37 N           1.7137  -10.1726    7.1000 N.ar    1  UNL1       -0.1702
     38 C           2.0683  -10.7002    5.9357 C.ar    1  UNL1        0.0554
     39 H           3.4583  -11.6722    3.6750 H       1  UNL1        0.0235
     40 H           3.9914  -10.0019    3.4555 H       1  UNL1        0.0235
     41 H           3.4075  -10.9430    2.0664 H       1  UNL1        0.0235
     42 H           1.6723   -9.3327    2.8026 H       1  UNL1        0.0345
     43 H           0.9360  -12.2306    3.5024 H       1  UNL1        0.0235
     44 H          -0.2127  -10.9473    3.1076 H       1  UNL1        0.0235
     45 H           0.9318  -11.5198    1.8785 H       1  UNL1        0.0235
     46 H          -1.0964   -5.1544    5.9328 H       1  UNL1        0.1493
     47 HA         -0.4085   -4.7418    3.5268 H       1  UNL1        0.0521
     48 H          -2.5885   -4.3921    2.6940 H       1  UNL1        0.0281
     49 H          -3.2460   -5.8111    3.4840 H       1  UNL1        0.0281
     50 H          -2.5232   -3.1886    4.8543 H       1  UNL1        0.0230
     51 H          -4.1426   -3.8616    4.5613 H       1  UNL1        0.0230
     52 H          -3.0777   -4.6538    5.7045 H       1  UNL1        0.0230
     53 H1          0.0771   -7.1028    2.8747 H       1  UNL1        0.0575
     54 H2         -1.6200   -7.5485    3.1781 H       1  UNL1        0.0575
     55 H          -2.1439   -6.2288    1.4062 H       1  UNL1        0.2095
     56 H           0.0572   -7.5889    9.5560 H       1  UNL1        0.1492
     57 H           0.4210   -9.8604   10.4250 H       1  UNL1        0.0512
     58 H           1.5772  -10.1726    9.1761 H       1  UNL1        0.0512
     59 H           2.1345   -6.8041    9.8323 H       1  UNL1        0.0621
     60 H           3.8643   -5.9551   11.0584 H       1  UNL1        0.0636
     61 H           6.0415   -7.8405   13.4608 H       1  UNL1        0.1548
     62 H           6.7873   -5.5785   14.6872 H       1  UNL1        0.0395
     63 H           6.1220   -3.3512   13.6351 H       1  UNL1        0.0288
     64 H           7.7989   -3.4110   14.1640 H       1  UNL1        0.0288
     65 H           6.8566   -3.8022   11.2410 H       1  UNL1        0.0465
     66 H           7.5651   -2.3772   11.9220 H       1  UNL1        0.0465
     67 H          10.7730   -1.5730   12.0787 H       1  UNL1        0.0323
     68 H          10.3737   -1.6555   10.3424 H       1  UNL1        0.0323
     69 H           9.1132   -1.4341   11.5392 H       1  UNL1        0.0323
     70 H           9.7396   -6.0139   11.5769 H       1  UNL1        0.0465
     71 H           8.0572   -5.9089   11.0640 H       1  UNL1        0.0465
     72 H           9.0930   -5.7305   13.9434 H       1  UNL1        0.0288
     73 H           8.2482   -7.1106   13.2423 H       1  UNL1        0.0288
     74 H           4.7009   -9.8358   12.8077 H       1  UNL1        0.0636
     75 H           2.8363  -10.7336   11.4683 H       1  UNL1        0.0621
     76 H           2.6225  -11.6289    5.9315 H       1  UNL1        0.0851
@<TRIPOS>BOND
     1     1     2    1
     2     2     3    1
     3     2     4    1
     4     4     5   ar
     5     5     6   ar
     6     6     7   ar
     7     7     8    1
     8    10    11    1
     9     9    12    1
    10    12    13    1
    11     7    14   ar
    12    14    15   ar
    13    15    16    1
    14    16    17    1
    15    17    18    1
    16    18    19   ar
    17    19    20   ar
    18    20    21   ar
    19    21    22    1
    20    22    23   am
    21    23    24    1
    22    24    25    1
    23    25    26    1
    24    26    27    1
    25    27    28   am
    26    28    29    1
    27    28    30    2
    28    27    31    1
    29    31    32    1
    30    24    32    1
    31    23    33    2
    32    21    34   ar
    33    34    35   ar
    34    18    35   ar
    35    15    36   ar
    36     5    36   ar
    37    36    37   ar
    38    37    38   ar
    39     4    38   ar
    40     1    39    1
    41     1    40    1
    42     1    41    1
    43     2    42    1
    44     3    43    1
    45     3    44    1
    46     3    45    1
    47     8    46    1
    48     9    47    1
    49    10    48    1
    50    10    49    1
    51    11    50    1
    52    11    51    1
    53    11    52    1
    54    12    53    1
    55    12    54    1
    56    13    55    1
    57    16    56    1
    58    17    57    1
    59    17    58    1
    60    19    59    1
    61    20    60    1
    62    22    61    1
    63    24    62    1
    64    25    63    1
    65    25    64    1
    66    26    65    1
    67    26    66    1
    68    29    67    1
    69    29    68    1
    70    29    69    1
    71    31    70    1
    72    31    71    1
    73    32    72    1
    74    32    73    1
    75    34    74    1
    76    35    75    1
    77    38    76    1
    78     9    10    1
    79     9     8    1
