@<TRIPOS>MOLECULE
*****
 70 73 0 0 0
SMALL
GASTEIGER

@<TRIPOS>ATOM
      1 C           4.5582    3.0795    1.9088 C.3     1  UNL1       -0.0585
      2 C           3.7864    3.2975    3.2132 C.3     1  UNL1       -0.0165
      3 C           4.4962    2.5966    4.3714 C.3     1  UNL1       -0.0585
      4 C           3.6383    4.7506    3.5084 C.ar    1  UNL1        0.0193
      5 C           2.5348    5.4232    3.9851 C.ar    1  UNL1        0.1659
      6 N           1.2876    5.0433    4.3112 N.ar    1  UNL1       -0.1949
      7 C           0.4454    5.9567    4.7178 C.ar    1  UNL1        0.2203
      8 N          -0.8378    5.5514    4.9936 N.pl3   1  UNL1       -0.3083
      9 CA         -1.1959    4.1225    5.0492 C.3     1  UNL1        0.0461
     10 C          -2.6343    3.9073    4.5223 C.3     1  UNL1       -0.0352
     11 C          -3.3716    2.7124    5.1113 C.3     1  UNL1       -0.0635
     12 C          -0.8997    3.5413    6.4510 C.3     1  UNL1        0.0626
     13 O          -0.8129    2.1138    6.4489 O.3     1  UNL1       -0.3932
     14 N           0.7750    7.2980    4.8763 N.ar    1  UNL1       -0.1811
     15 C           1.9909    7.6997    4.5696 C.ar    1  UNL1        0.2214
     16 N           2.3459    9.0318    4.7213 N.pl3   1  UNL1       -0.3092
     17 C           3.6191    9.6700    4.4630 C.3     1  UNL1        0.0370
     18 C           3.5206   10.6308    3.3106 C.ar    1  UNL1       -0.0302
     19 C           4.0827   10.2502    2.0969 C.ar    1  UNL1       -0.0553
     20 C           4.0473   11.1035    1.0086 C.ar    1  UNL1       -0.0402
     21 C           3.4379   12.3550    1.0666 C.ar    1  UNL1        0.0334
     22 N           3.3950   13.2008   -0.0752 N.am    1  UNL1       -0.2853
     23 C           3.9275   12.8564   -1.3205 C.2     1  UNL1        0.2204
     24 C           3.8254   13.9184   -2.4008 C.3     1  UNL1        0.0400
     25 C           4.3953   13.3564   -3.7233 C.3     1  UNL1       -0.0183
     26 C           4.5113   14.4375   -4.7799 C.3     1  UNL1        0.0484
     27 O           5.2794   15.5349   -4.2910 O.3     1  UNL1       -0.3797
     28 C           4.6930   16.1398   -3.1424 C.3     1  UNL1        0.0484
     29 C           4.6158   15.1556   -1.9892 C.3     1  UNL1       -0.0183
     30 O           4.4581   11.7908   -1.6057 O.2     1  UNL1       -0.2752
     31 C           2.8703   12.7511    2.2878 C.ar    1  UNL1       -0.0402
     32 C           2.9140   11.8898    3.4044 C.ar    1  UNL1       -0.0553
     33 N           2.9000    6.7313    4.0980 N.ar    1  UNL1       -0.1831
     34 N           4.1793    6.9550    3.7282 N.ar    1  UNL1       -0.1702
     35 C           4.6217    5.7524    3.3793 C.ar    1  UNL1        0.0554
     36 H           5.5771    3.4797    1.9749 H       1  UNL1        0.0235
     37 H           4.0618    3.5845    1.0720 H       1  UNL1        0.0235
     38 H           4.6357    2.0149    1.6725 H       1  UNL1        0.0235
     39 H           2.7896    2.8524    3.0948 H       1  UNL1        0.0345
     40 H           5.5026    3.0049    4.5232 H       1  UNL1        0.0235
     41 H           3.9438    2.7301    5.3086 H       1  UNL1        0.0235
     42 H           4.5897    1.5240    4.1789 H       1  UNL1        0.0235
     43 H          -1.4389    6.2297    5.4426 H       1  UNL1        0.1493
     44 HA         -0.5650    3.5684    4.3423 H       1  UNL1        0.0521
     45 H          -3.2462    4.8045    4.6664 H       1  UNL1        0.0281
     46 H          -2.5751    3.7578    3.4345 H       1  UNL1        0.0281
     47 H          -3.4649    2.8080    6.1979 H       1  UNL1        0.0230
     48 H          -4.3858    2.6265    4.7145 H       1  UNL1        0.0230
     49 H          -2.8510    1.7806    4.8661 H       1  UNL1        0.0230
     50 H1          0.0741    3.8887    6.8075 H       1  UNL1        0.0575
     51 H2         -1.6452    3.8623    7.1867 H       1  UNL1        0.0575
     52 H          -1.7029    1.7406    6.5500 H       1  UNL1        0.2095
     53 H           1.5992    9.6484    5.0103 H       1  UNL1        0.1492
     54 H           3.9757   10.1897    5.3568 H       1  UNL1        0.0512
     55 H           4.4373    8.9903    4.2420 H       1  UNL1        0.0512
     56 H           4.5701    9.2856    1.9689 H       1  UNL1        0.0621
     57 H           4.5267   10.7192    0.1206 H       1  UNL1        0.0636
     58 H           2.9384   14.0971    0.0353 H       1  UNL1        0.1548
     59 H           2.7669   14.1631   -2.5511 H       1  UNL1        0.0396
     60 H           5.3994   12.9426   -3.5476 H       1  UNL1        0.0295
     61 H           3.7766   12.5289   -4.0925 H       1  UNL1        0.0295
     62 H           5.0193   14.0406   -5.6655 H       1  UNL1        0.0560
     63 H           3.5225   14.7888   -5.0932 H       1  UNL1        0.0560
     64 H           3.6984   16.5220   -3.3981 H       1  UNL1        0.0560
     65 H           5.3173   16.9905   -2.8552 H       1  UNL1        0.0560
     66 H           4.1634   15.6358   -1.1156 H       1  UNL1        0.0295
     67 H           5.6310   14.8505   -1.7004 H       1  UNL1        0.0295
     68 H           2.3888   13.7186    2.4074 H       1  UNL1        0.0636
     69 H           2.4794   12.2029    4.3516 H       1  UNL1        0.0621
     70 H           5.6440    5.6486    3.0405 H       1  UNL1        0.0851
@<TRIPOS>BOND
     1     1     2    1
     2     2     3    1
     3     2     4    1
     4     4     5   ar
     5     5     6   ar
     6     6     7   ar
     7     7     8    1
     8    10    11    1
     9     9    12    1
    10    12    13    1
    11     7    14   ar
    12    14    15   ar
    13    15    16    1
    14    16    17    1
    15    17    18    1
    16    18    19   ar
    17    19    20   ar
    18    20    21   ar
    19    21    22    1
    20    22    23   am
    21    23    24    1
    22    24    25    1
    23    25    26    1
    24    26    27    1
    25    27    28    1
    26    28    29    1
    27    24    29    1
    28    23    30    2
    29    21    31   ar
    30    31    32   ar
    31    18    32   ar
    32    15    33   ar
    33     5    33   ar
    34    33    34   ar
    35    34    35   ar
    36     4    35   ar
    37     1    36    1
    38     1    37    1
    39     1    38    1
    40     2    39    1
    41     3    40    1
    42     3    41    1
    43     3    42    1
    44     8    43    1
    45     9    44    1
    46    10    45    1
    47    10    46    1
    48    11    47    1
    49    11    48    1
    50    11    49    1
    51    12    50    1
    52    12    51    1
    53    13    52    1
    54    16    53    1
    55    17    54    1
    56    17    55    1
    57    19    56    1
    58    20    57    1
    59    22    58    1
    60    24    59    1
    61    25    60    1
    62    25    61    1
    63    26    62    1
    64    26    63    1
    65    28    64    1
    66    28    65    1
    67    29    66    1
    68    29    67    1
    69    31    68    1
    70    32    69    1
    71    35    70    1
    72     9    10    1
    73     9     8    1
