@<TRIPOS>MOLECULE
*****
 63 66 0 0 0
SMALL
GASTEIGER

@<TRIPOS>ATOM
      1 C          -0.1941   12.3430    2.0126 C.3     1  UNL1       -0.0585
      2 C          -1.1196   11.3660    1.2802 C.3     1  UNL1       -0.0165
      3 C          -2.5574   11.5489    1.7689 C.3     1  UNL1       -0.0585
      4 C          -1.0470   11.5658   -0.1956 C.ar    1  UNL1        0.0193
      5 C          -1.0017   10.6268   -1.2047 C.ar    1  UNL1        0.1659
      6 N          -0.9991    9.2875   -1.2373 N.ar    1  UNL1       -0.1949
      7 C          -0.9601    8.6525   -2.3750 C.ar    1  UNL1        0.2203
      8 N          -0.9514    7.2756   -2.3721 N.pl3   1  UNL1       -0.3083
      9 CA         -1.1572    6.3924   -1.2036 C.3     1  UNL1        0.0461
     10 C          -2.5871    5.7952   -1.2340 C.3     1  UNL1       -0.0352
     11 C          -2.6729    4.2850   -1.0146 C.3     1  UNL1       -0.0635
     12 C          -0.9328    7.1168    0.1478 C.3     1  UNL1        0.0626
     13 O          -1.0477    6.2526    1.2710 O.3     1  UNL1       -0.3932
     14 N          -0.9280    9.3101   -3.5937 N.ar    1  UNL1       -0.1811
     15 C          -0.9368   10.6260   -3.6058 C.ar    1  UNL1        0.2214
     16 N          -0.9358   11.2917   -4.8115 N.pl3   1  UNL1       -0.3092
     17 C          -0.8960   12.7123   -5.0429 C.3     1  UNL1        0.0370
     18 C           0.3957   13.1658   -5.6598 C.ar    1  UNL1       -0.0302
     19 C           0.7033   14.5158   -5.5175 C.ar    1  UNL1       -0.0553
     20 C           1.8582   15.0320   -6.0708 C.ar    1  UNL1       -0.0402
     21 C           2.7500   14.2397   -6.7898 C.ar    1  UNL1        0.0335
     22 N           3.9201   14.8034   -7.3564 N.am    1  UNL1       -0.2829
     23 C           4.2639   16.1499   -7.2668 C.2     1  UNL1        0.2544
     24 C           5.5496   16.5400   -7.8998 C.3     1  UNL1        0.1871
     25 C           5.6503   16.7033   -9.3907 C.3     1  UNL1       -0.0068
     26 C           5.6713   17.9228   -8.5186 C.3     1  UNL1       -0.0068
     27 F           6.6972   16.1155   -7.2353 F       1  UNL1       -0.2320
     28 O           3.6211   17.0515   -6.7272 O.2     1  UNL1       -0.2720
     29 C           2.4586   12.8763   -6.9297 C.ar    1  UNL1       -0.0402
     30 C           1.2823   12.3461   -6.3695 C.ar    1  UNL1       -0.0553
     31 N          -0.9651   11.3132   -2.3741 N.ar    1  UNL1       -0.1831
     32 N          -0.9920   12.6511   -2.1964 N.ar    1  UNL1       -0.1702
     33 C          -1.0357   12.7987   -0.8784 C.ar    1  UNL1        0.0554
     34 H          -0.4886   13.3846    1.8344 H       1  UNL1        0.0235
     35 H           0.8409   12.2322    1.6700 H       1  UNL1        0.0235
     36 H          -0.2216   12.1743    3.0925 H       1  UNL1        0.0235
     37 H          -0.7958   10.3450    1.5196 H       1  UNL1        0.0345
     38 H          -2.9209   12.5626    1.5606 H       1  UNL1        0.0235
     39 H          -3.2350   10.8482    1.2685 H       1  UNL1        0.0235
     40 H          -2.6257   11.3808    2.8478 H       1  UNL1        0.0235
     41 H          -0.9393    6.8306   -3.2816 H       1  UNL1        0.1493
     42 HA         -0.4255    5.5746   -1.2655 H       1  UNL1        0.0521
     43 H          -3.1985    6.2653   -0.4542 H       1  UNL1        0.0281
     44 H          -3.0804    6.0260   -2.1829 H       1  UNL1        0.0281
     45 H          -2.2259    3.9722   -0.0654 H       1  UNL1        0.0230
     46 H          -3.7282    3.9856   -0.9902 H       1  UNL1        0.0230
     47 H          -2.1937    3.7304   -1.8271 H       1  UNL1        0.0230
     48 H1          0.0601    7.5815    0.1725 H       1  UNL1        0.0575
     49 H2         -1.6984    7.8876    0.2927 H       1  UNL1        0.0575
     50 H          -1.9987    6.0788    1.3753 H       1  UNL1        0.2095
     51 H          -0.9081   10.7058   -5.6333 H       1  UNL1        0.1492
     52 H          -1.7388   13.0099   -5.6733 H       1  UNL1        0.0512
     53 H          -1.0173   13.3143   -4.1503 H       1  UNL1        0.0512
     54 H           0.0610   15.1953   -4.9601 H       1  UNL1        0.0621
     55 H           2.0134   16.0854   -5.8940 H       1  UNL1        0.0636
     56 H           4.5575   14.1754   -7.8340 H       1  UNL1        0.1549
     57 H           6.5764   16.4184   -9.8704 H       1  UNL1        0.0302
     58 H           4.7590   16.5152   -9.9774 H       1  UNL1        0.0302
     59 H           4.8033   18.5756   -8.5200 H       1  UNL1        0.0302
     60 H           6.6053   18.4511   -8.3732 H       1  UNL1        0.0302
     61 H           3.1170   12.1952   -7.4632 H       1  UNL1        0.0636
     62 H           1.0732   11.2849   -6.4792 H       1  UNL1        0.0621
     63 H          -1.0612   13.7977   -0.4620 H       1  UNL1        0.0851
@<TRIPOS>BOND
     1     1     2    1
     2     2     3    1
     3     2     4    1
     4     4     5   ar
     5     5     6   ar
     6     6     7   ar
     7     7     8    1
     8    10    11    1
     9     9    12    1
    10    12    13    1
    11     7    14   ar
    12    14    15   ar
    13    15    16    1
    14    16    17    1
    15    17    18    1
    16    18    19   ar
    17    19    20   ar
    18    20    21   ar
    19    21    22    1
    20    22    23   am
    21    23    24    1
    22    24    25    1
    23    25    26    1
    24    24    26    1
    25    24    27    1
    26    23    28    2
    27    21    29   ar
    28    29    30   ar
    29    18    30   ar
    30    15    31   ar
    31     5    31   ar
    32    31    32   ar
    33    32    33   ar
    34     4    33   ar
    35     1    34    1
    36     1    35    1
    37     1    36    1
    38     2    37    1
    39     3    38    1
    40     3    39    1
    41     3    40    1
    42     8    41    1
    43     9    42    1
    44    10    43    1
    45    10    44    1
    46    11    45    1
    47    11    46    1
    48    11    47    1
    49    12    48    1
    50    12    49    1
    51    13    50    1
    52    16    51    1
    53    17    52    1
    54    17    53    1
    55    19    54    1
    56    20    55    1
    57    22    56    1
    58    25    57    1
    59    25    58    1
    60    26    59    1
    61    26    60    1
    62    29    61    1
    63    30    62    1
    64    33    63    1
    65     9    10    1
    66     9     8    1
