@<TRIPOS>MOLECULE
*****
 63 66 0 0 0
SMALL
GASTEIGER

@<TRIPOS>ATOM
      1 C           1.2247   -0.0220   -0.0285 C.3     1  UNL1       -0.0585
      2 C           0.7220   -1.3734   -0.5066 C.3     1  UNL1       -0.0165
      3 C           1.1724   -2.5417    0.3581 C.3     1  UNL1       -0.0585
      4 C          -0.7367   -1.3329   -0.4658 C.ar    1  UNL1        0.0193
      5 C          -1.5760   -1.8185   -1.4196 C.ar    1  UNL1        0.1677
      6 N          -1.3972   -2.4350   -2.6329 N.ar    1  UNL1       -0.1753
      7 C          -2.4886   -2.7794   -3.2249 C.ar    1  UNL1        0.3231
      8 O          -2.4374   -3.4034   -4.4717 O.3     1  UNL1       -0.4590
      9 C          -3.4887   -3.9164   -5.4289 C.3     1  UNL1        0.1057
     10 C          -4.3400   -2.7956   -6.0337 C.3     1  UNL1       -0.0028
     11 C          -5.1060   -2.1724   -4.9243 C.3     1  UNL1        0.0019
     12 N          -5.9053   -3.2516   -4.2569 N.3     1  UNL1       -0.3051
     13 C          -6.6050   -2.5826   -3.2052 C.3     1  UNL1       -0.0128
     14 C          -5.1574   -4.4291   -3.7026 C.3     1  UNL1        0.0019
     15 C          -4.3609   -5.0236   -4.8236 C.3     1  UNL1       -0.0028
     16 N          -3.7275   -2.5616   -2.6430 N.ar    1  UNL1       -0.1612
     17 C          -3.9391   -2.0001   -1.4878 C.ar    1  UNL1        0.2229
     18 N          -5.1756   -1.8471   -0.8442 N.pl3   1  UNL1       -0.3092
     19 C          -5.6822   -1.0489    0.2321 C.3     1  UNL1        0.0371
     20 C          -6.5118    0.1101   -0.2896 C.ar    1  UNL1       -0.0286
     21 C          -7.8261   -0.0555   -0.7734 C.ar    1  UNL1       -0.0358
     22 C          -8.6494    1.0308   -1.1174 C.ar    1  UNL1        0.0337
     23 N          -9.9959    0.8706   -1.5652 N.am    1  UNL1       -0.2857
     24 C         -10.6252   -0.3621   -1.7587 C.2     1  UNL1        0.2141
     25 C         -12.0642   -0.3014   -2.2188 C.3     1  UNL1        0.0125
     26 O         -10.1325   -1.4556   -1.5950 O.2     1  UNL1       -0.2758
     27 C          -8.1133    2.3191   -0.9812 C.ar    1  UNL1       -0.0405
     28 C          -6.7820    2.4917   -0.5638 C.ar    1  UNL1       -0.0597
     29 C          -5.9841    1.3941   -0.2427 C.ar    1  UNL1       -0.0570
     30 N          -2.8039   -1.5823   -0.8742 N.ar    1  UNL1       -0.1830
     31 N          -2.8271   -0.9600    0.3048 N.ar    1  UNL1       -0.1702
     32 C          -1.5482   -0.8217    0.5718 C.ar    1  UNL1        0.0554
     33 H           0.8841    0.1843    0.9934 H       1  UNL1        0.0235
     34 H           0.8149    0.7755   -0.6647 H       1  UNL1        0.0235
     35 H           2.3096    0.0181   -0.0489 H       1  UNL1        0.0235
     36 H           1.0537   -1.5370   -1.5404 H       1  UNL1        0.0345
     37 H           0.7967   -2.4384    1.3836 H       1  UNL1        0.0235
     38 H           0.7686   -3.4884   -0.0288 H       1  UNL1        0.0235
     39 H           2.2586   -2.6059    0.3783 H       1  UNL1        0.0235
     40 H          -2.9556   -4.3722   -6.2743 H       1  UNL1        0.0735
     41 H          -5.0821   -3.1607   -6.7542 H       1  UNL1        0.0313
     42 H          -3.7211   -2.0432   -6.5326 H       1  UNL1        0.0313
     43 H          -5.7708   -1.3685   -5.2602 H       1  UNL1        0.0428
     44 H          -4.3828   -1.5796   -4.3457 H       1  UNL1        0.0428
     45 H          -6.9661   -3.2628   -2.4245 H       1  UNL1        0.0391
     46 H          -5.8336   -1.9307   -2.8574 H       1  UNL1        0.0391
     47 H          -7.3319   -1.8090   -3.4409 H       1  UNL1        0.0391
     48 H          -4.4466   -4.3572   -2.8729 H       1  UNL1        0.0428
     49 H          -5.8445   -5.1444   -3.2389 H       1  UNL1        0.0428
     50 H          -5.0866   -5.4329   -5.5367 H       1  UNL1        0.0313
     51 H          -3.7380   -5.8515   -4.4660 H       1  UNL1        0.0313
     52 H          -6.0015   -2.1746   -1.2862 H       1  UNL1        0.1492
     53 H          -6.3680   -1.7001    0.7923 H       1  UNL1        0.0512
     54 H          -4.9496   -0.7156    0.9576 H       1  UNL1        0.0512
     55 H          -8.1991   -1.0691   -0.8512 H       1  UNL1        0.0639
     56 H         -10.5207    1.7152   -1.7548 H       1  UNL1        0.1548
     57 H         -12.1335   -0.8437   -3.1680 H       1  UNL1        0.0323
     58 H         -12.6743   -0.8281   -1.4766 H       1  UNL1        0.0323
     59 H         -12.4508    0.7082   -2.3513 H       1  UNL1        0.0323
     60 H          -8.7001    3.2099   -1.1918 H       1  UNL1        0.0636
     61 H          -6.3564    3.4875   -0.4650 H       1  UNL1        0.0618
     62 H          -4.9533    1.5304    0.0763 H       1  UNL1        0.0621
     63 H          -1.2860   -0.3536    1.5059 H       1  UNL1        0.0851
@<TRIPOS>BOND
     1     1     2    1
     2     2     3    1
     3     2     4    1
     4     4     5   ar
     5     5     6   ar
     6     6     7   ar
     7     7     8    1
     8     8     9    1
     9     9    10    1
    10    10    11    1
    11    11    12    1
    12    12    13    1
    13    12    14    1
    14    14    15    1
    15     9    15    1
    16     7    16   ar
    17    16    17   ar
    18    17    18    1
    19    18    19    1
    20    19    20    1
    21    20    21   ar
    22    21    22   ar
    23    22    23    1
    24    23    24   am
    25    24    25    1
    26    24    26    2
    27    22    27   ar
    28    27    28   ar
    29    28    29   ar
    30    20    29   ar
    31    17    30   ar
    32     5    30   ar
    33    30    31   ar
    34    31    32   ar
    35     4    32   ar
    36     1    33    1
    37     1    34    1
    38     1    35    1
    39     2    36    1
    40     3    37    1
    41     3    38    1
    42     3    39    1
    43     9    40    1
    44    10    41    1
    45    10    42    1
    46    11    43    1
    47    11    44    1
    48    13    45    1
    49    13    46    1
    50    13    47    1
    51    14    48    1
    52    14    49    1
    53    15    50    1
    54    15    51    1
    55    18    52    1
    56    19    53    1
    57    19    54    1
    58    21    55    1
    59    23    56    1
    60    25    57    1
    61    25    58    1
    62    25    59    1
    63    27    60    1
    64    28    61    1
    65    29    62    1
    66    32    63    1
