@<TRIPOS>MOLECULE
*****
 63 66 0 0 0
SMALL
GASTEIGER

@<TRIPOS>ATOM
      1 C           1.0887    0.0344   -0.0491 C.3     1  UNL1       -0.0585
      2 C           0.5872    0.8985    1.0967 C.3     1  UNL1       -0.0165
      3 C           1.0410    2.3488    1.0107 C.3     1  UNL1       -0.0585
      4 C          -0.8747    0.8887    1.0546 C.ar    1  UNL1        0.0193
      5 C          -1.7107    0.7871    2.1203 C.ar    1  UNL1        0.1677
      6 N          -1.5430    0.6556    3.4818 N.ar    1  UNL1       -0.1753
      7 C          -2.6257    0.5901    4.1558 C.ar    1  UNL1        0.3231
      8 O          -2.5826    0.4590    5.5404 O.3     1  UNL1       -0.4590
      9 C          -3.6336    0.3510    6.6062 C.3     1  UNL1        0.1057
     10 C          -4.5094   -0.8989    6.4698 C.3     1  UNL1       -0.0028
     11 C          -5.3653   -0.7638    5.2469 C.3     1  UNL1        0.0019
     12 N          -6.1398    0.5166    5.3604 N.3     1  UNL1       -0.3051
     13 C          -6.8522    0.6981    4.1327 C.3     1  UNL1       -0.0128
     14 C          -5.3252    1.7713    5.5405 C.3     1  UNL1        0.0019
     15 C          -4.4817    1.6174    6.7602 C.3     1  UNL1       -0.0028
     16 N          -3.8767    0.6604    3.5535 N.ar    1  UNL1       -0.1612
     17 C          -4.0772    0.8185    2.2801 C.ar    1  UNL1        0.2229
     18 N          -5.3258    0.9564    1.6530 N.pl3   1  UNL1       -0.3092
     19 C          -5.8205    1.0108    0.3093 C.3     1  UNL1        0.0370
     20 C          -6.6650   -0.2319    0.0889 C.ar    1  UNL1       -0.0302
     21 C          -6.1358   -1.4649    0.4630 C.ar    1  UNL1       -0.0553
     22 C          -6.7914   -2.6403    0.1500 C.ar    1  UNL1       -0.0402
     23 C          -8.0000   -2.6502   -0.5393 C.ar    1  UNL1        0.0334
     24 N          -8.6022   -3.8754   -0.9353 N.am    1  UNL1       -0.2857
     25 C          -8.0466   -5.1320   -0.6907 C.2     1  UNL1        0.2141
     26 C          -8.8250   -6.3087   -1.2002 C.3     1  UNL1        0.0125
     27 O          -7.0029   -5.3777   -0.1067 O.2     1  UNL1       -0.2758
     28 C          -8.5911   -1.4123   -0.8405 C.ar    1  UNL1       -0.0402
     29 C          -7.9320   -0.2074   -0.5097 C.ar    1  UNL1       -0.0553
     30 N          -2.9412    0.8675    1.5391 N.ar    1  UNL1       -0.1830
     31 N          -2.9680    0.9958    0.2133 N.ar    1  UNL1       -0.1702
     32 C          -1.6906    1.0206   -0.0925 C.ar    1  UNL1        0.0554
     33 H           0.7487    0.4256   -1.0158 H       1  UNL1        0.0235
     34 H           0.6817   -0.9826    0.0413 H       1  UNL1        0.0235
     35 H           2.1742   -0.0093   -0.0556 H       1  UNL1        0.0235
     36 H           0.9248    0.4668    2.0478 H       1  UNL1        0.0345
     37 H           0.6658    2.8241    0.0959 H       1  UNL1        0.0235
     38 H           0.6411    2.9308    1.8531 H       1  UNL1        0.0235
     39 H           2.1278    2.4107    1.0264 H       1  UNL1        0.0235
     40 H          -3.0937    0.2396    7.5564 H       1  UNL1        0.0735
     41 H          -5.1980   -1.0135    7.3163 H       1  UNL1        0.0313
     42 H          -3.8918   -1.8018    6.4161 H       1  UNL1        0.0313
     43 H          -6.0500   -1.6102    5.1262 H       1  UNL1        0.0428
     44 H          -4.7112   -0.9583    4.3901 H       1  UNL1        0.0428
     45 H          -7.4797    1.5772    3.9839 H       1  UNL1        0.0391
     46 H          -6.0087    1.0054    3.5916 H       1  UNL1        0.0391
     47 H          -7.2596   -0.2037    3.6619 H       1  UNL1        0.0391
     48 H          -4.6478    2.1120    4.7466 H       1  UNL1        0.0428
     49 H          -5.9874    2.6427    5.5853 H       1  UNL1        0.0428
     50 H          -5.1762    1.5566    7.6066 H       1  UNL1        0.0313
     51 H          -3.8505    2.5007    6.9020 H       1  UNL1        0.0313
     52 H          -6.1321    0.6301    2.1367 H       1  UNL1        0.1492
     53 H          -6.4766    1.8875    0.2754 H       1  UNL1        0.0512
     54 H          -5.0880    1.1050   -0.4820 H       1  UNL1        0.0512
     55 H          -5.1886   -1.5461    0.9906 H       1  UNL1        0.0621
     56 H          -6.2725   -3.5394    0.4481 H       1  UNL1        0.0636
     57 H          -9.4694   -3.8165   -1.4533 H       1  UNL1        0.1548
     58 H          -8.1698   -6.8694   -1.8756 H       1  UNL1        0.0323
     59 H          -9.0600   -6.9425   -0.3385 H       1  UNL1        0.0323
     60 H          -9.7418   -6.0370   -1.7185 H       1  UNL1        0.0323
     61 H          -9.5479   -1.3480   -1.3540 H       1  UNL1        0.0636
     62 H          -8.4045    0.7467   -0.7394 H       1  UNL1        0.0621
     63 H          -1.4322    1.1321   -1.1326 H       1  UNL1        0.0851
@<TRIPOS>BOND
     1     1     2    1
     2     2     3    1
     3     2     4    1
     4     4     5   ar
     5     5     6   ar
     6     6     7   ar
     7     7     8    1
     8     8     9    1
     9     9    10    1
    10    10    11    1
    11    11    12    1
    12    12    13    1
    13    12    14    1
    14    14    15    1
    15     9    15    1
    16     7    16   ar
    17    16    17   ar
    18    17    18    1
    19    18    19    1
    20    19    20    1
    21    20    21   ar
    22    21    22   ar
    23    22    23   ar
    24    23    24    1
    25    24    25   am
    26    25    26    1
    27    25    27    2
    28    23    28   ar
    29    28    29   ar
    30    20    29   ar
    31    17    30   ar
    32     5    30   ar
    33    30    31   ar
    34    31    32   ar
    35     4    32   ar
    36     1    33    1
    37     1    34    1
    38     1    35    1
    39     2    36    1
    40     3    37    1
    41     3    38    1
    42     3    39    1
    43     9    40    1
    44    10    41    1
    45    10    42    1
    46    11    43    1
    47    11    44    1
    48    13    45    1
    49    13    46    1
    50    13    47    1
    51    14    48    1
    52    14    49    1
    53    15    50    1
    54    15    51    1
    55    18    52    1
    56    19    53    1
    57    19    54    1
    58    21    55    1
    59    22    56    1
    60    24    57    1
    61    26    58    1
    62    26    59    1
    63    26    60    1
    64    28    61    1
    65    29    62    1
    66    32    63    1
