@<TRIPOS>MOLECULE
*****
 70 74 0 0 0
SMALL
GASTEIGER

@<TRIPOS>ATOM
      1 C           1.2291    0.0041   -0.0323 C.3     1  UNL1       -0.0585
      2 C           0.7353   -0.7837   -1.2340 C.3     1  UNL1       -0.0165
      3 C           1.1842   -2.2366   -1.2439 C.3     1  UNL1       -0.0585
      4 C          -0.7225   -0.7781   -1.1953 C.ar    1  UNL1        0.0193
      5 C          -1.5485   -0.5986   -2.2619 C.ar    1  UNL1        0.1677
      6 N          -1.3737   -0.3680   -3.6060 N.ar    1  UNL1       -0.1753
      7 C          -2.4567   -0.2474   -4.2828 C.ar    1  UNL1        0.3231
      8 O          -2.4208   -0.0086   -5.6492 O.3     1  UNL1       -0.4590
      9 C          -3.4878    0.1802   -6.6920 C.3     1  UNL1        0.1057
     10 C          -4.3590    1.4204   -6.4562 C.3     1  UNL1       -0.0028
     11 C          -5.2009    1.1995   -5.2385 C.3     1  UNL1        0.0019
     12 N          -5.9814   -0.0659   -5.4472 N.3     1  UNL1       -0.3051
     13 C          -6.6948   -0.3299   -4.2383 C.3     1  UNL1       -0.0128
     14 C          -5.1717   -1.3117   -5.7158 C.3     1  UNL1        0.0019
     15 C          -4.3409   -1.0713   -6.9290 C.3     1  UNL1       -0.0028
     16 N          -3.7037   -0.3396   -3.6824 N.ar    1  UNL1       -0.1612
     17 C          -3.9025   -0.5622   -2.4323 C.ar    1  UNL1        0.2229
     18 N          -5.1379   -0.6513   -1.7968 N.pl3   1  UNL1       -0.3091
     19 C          -5.6041   -0.8648   -0.4839 C.3     1  UNL1        0.0391
     20 C          -6.4960    0.3140   -0.1247 C.ar    1  UNL1       -0.0047
     21 C          -7.7203    0.1020    0.5302 C.ar    1  UNL1        0.0522
     22 N          -8.2118   -1.1870    0.8078 N.ar    1  UNL1       -0.3055
     23 C          -7.5275   -2.2105    1.4114 C.ar    1  UNL1        0.0293
     24 C          -8.4002   -3.2682    1.4430 C.ar    1  UNL1        0.0458
     25 N          -9.5971   -2.9293    0.8717 N.ar    1  UNL1       -0.2437
     26 C          -9.4637   -1.6707    0.5115 C.ar    1  UNL1        0.1004
     27 C          -8.4756    1.1757    0.9681 C.ar    1  UNL1       -0.0357
     28 C          -8.0144    2.4688    0.7591 C.ar    1  UNL1       -0.0385
     29 C          -6.8585    2.7511    0.0298 C.ar    1  UNL1        0.0338
     30 N          -6.4303    4.0950   -0.1931 N.am    1  UNL1       -0.2857
     31 C          -7.0655    5.2149    0.3428 C.2     1  UNL1        0.2141
     32 C          -6.4647    6.5554    0.0271 C.3     1  UNL1        0.0125
     33 O          -8.0631    5.2174    1.0540 O.2     1  UNL1       -0.2758
     34 C          -6.1141    1.6573   -0.4411 C.ar    1  UNL1       -0.0338
     35 N          -2.7766   -0.7054   -1.6878 N.ar    1  UNL1       -0.1830
     36 N          -2.8150   -0.9295   -0.3765 N.ar    1  UNL1       -0.1702
     37 C          -1.5417   -0.9928   -0.0643 C.ar    1  UNL1        0.0554
     38 H           0.8857   -0.4502    0.9052 H       1  UNL1        0.0235
     39 H           0.8199    1.0242   -0.0570 H       1  UNL1        0.0235
     40 H           2.3141    0.0483   -0.0204 H       1  UNL1        0.0235
     41 H           1.0719   -0.2888   -2.1539 H       1  UNL1        0.0345
     42 H           0.8066   -2.7701   -0.3627 H       1  UNL1        0.0235
     43 H           0.7820   -2.7603   -2.1230 H       1  UNL1        0.0235
     44 H           2.2702   -2.2980   -1.2637 H       1  UNL1        0.0235
     45 H          -2.9589    0.3601   -7.6373 H       1  UNL1        0.0735
     46 H          -5.0600    1.5970   -7.2816 H       1  UNL1        0.0313
     47 H          -3.7397    2.3164   -6.3436 H       1  UNL1        0.0313
     48 H          -5.8810    2.0351   -5.0405 H       1  UNL1        0.0428
     49 H          -4.5348    1.3322   -4.3786 H       1  UNL1        0.0428
     50 H          -7.2987   -1.2321   -4.1310 H       1  UNL1        0.0391
     51 H          -5.8318   -0.6472   -3.7386 H       1  UNL1        0.0391
     52 H          -7.1004    0.5310   -3.6944 H       1  UNL1        0.0391
     53 H          -4.4866   -1.7114   -4.9557 H       1  UNL1        0.0428
     54 H          -5.8368   -2.1770   -5.8109 H       1  UNL1        0.0428
     55 H          -5.0468   -0.9483   -7.7591 H       1  UNL1        0.0313
     56 H          -3.7139   -1.9430   -7.1417 H       1  UNL1        0.0313
     57 H          -5.9946   -0.5234   -2.2758 H       1  UNL1        0.1492
     58 H          -6.2070   -1.7729   -0.6004 H       1  UNL1        0.0512
     59 H          -4.8894   -1.0519    0.3051 H       1  UNL1        0.0512
     60 H          -6.5175   -2.0942    1.7769 H       1  UNL1        0.0829
     61 H          -8.2213   -4.2521    1.8541 H       1  UNL1        0.0845
     62 H         -10.2103   -1.0857   -0.0123 H       1  UNL1        0.1032
     63 H          -9.3734    1.0426    1.5656 H       1  UNL1        0.0639
     64 H          -8.6109    3.2419    1.2212 H       1  UNL1        0.0637
     65 H          -5.5911    4.2325   -0.7451 H       1  UNL1        0.1548
     66 H          -7.2362    7.1547   -0.4692 H       1  UNL1        0.0323
     67 H          -6.2165    7.0399    0.9786 H       1  UNL1        0.0323
     68 H          -5.5771    6.5085   -0.6004 H       1  UNL1        0.0323
     69 H          -5.2204    1.8252   -1.0436 H       1  UNL1        0.0640
     70 H          -1.2914   -1.1840    0.9668 H       1  UNL1        0.0851
@<TRIPOS>BOND
     1     1     2    1
     2     2     3    1
     3     2     4    1
     4     4     5   ar
     5     5     6   ar
     6     6     7   ar
     7     7     8    1
     8     8     9    1
     9     9    10    1
    10    10    11    1
    11    11    12    1
    12    12    13    1
    13    12    14    1
    14    14    15    1
    15     9    15    1
    16     7    16   ar
    17    16    17   ar
    18    17    18    1
    19    18    19    1
    20    19    20    1
    21    20    21   ar
    22    21    22    1
    23    22    23   ar
    24    23    24   ar
    25    24    25   ar
    26    25    26   ar
    27    22    26   ar
    28    21    27   ar
    29    27    28   ar
    30    28    29   ar
    31    29    30    1
    32    30    31   am
    33    31    32    1
    34    31    33    2
    35    29    34   ar
    36    20    34   ar
    37    17    35   ar
    38     5    35   ar
    39    35    36   ar
    40    36    37   ar
    41     4    37   ar
    42     1    38    1
    43     1    39    1
    44     1    40    1
    45     2    41    1
    46     3    42    1
    47     3    43    1
    48     3    44    1
    49     9    45    1
    50    10    46    1
    51    10    47    1
    52    11    48    1
    53    11    49    1
    54    13    50    1
    55    13    51    1
    56    13    52    1
    57    14    53    1
    58    14    54    1
    59    15    55    1
    60    15    56    1
    61    18    57    1
    62    19    58    1
    63    19    59    1
    64    23    60    1
    65    24    61    1
    66    26    62    1
    67    27    63    1
    68    28    64    1
    69    30    65    1
    70    32    66    1
    71    32    67    1
    72    32    68    1
    73    34    69    1
    74    37    70    1
