@<TRIPOS>MOLECULE
*****
 70 74 0 0 0
SMALL
GASTEIGER

@<TRIPOS>ATOM
      1 C           1.1742    0.0055    0.0482 C.3     1  UNL1       -0.0585
      2 C           0.6653   -0.0695    1.4834 C.3     1  UNL1       -0.0165
      3 C           1.1325    1.1176    2.3190 C.3     1  UNL1       -0.0585
      4 C          -0.8033   -0.0871    1.4636 C.ar    1  UNL1        0.0193
      5 C          -1.6430   -0.8516    2.2388 C.ar    1  UNL1        0.1677
      6 N          -1.4831   -1.8003    3.2153 N.ar    1  UNL1       -0.1753
      7 C          -2.5783   -2.1787    3.8142 C.ar    1  UNL1        0.3231
      8 O          -2.5301   -3.1563    4.7879 O.3     1  UNL1       -0.4590
      9 C          -3.5463   -3.8998    5.6127 C.3     1  UNL1        0.1057
     10 C          -4.5201   -4.7565    4.8236 C.3     1  UNL1       -0.0028
     11 C          -5.6154   -3.8327    4.2959 C.3     1  UNL1        0.0019
     12 N          -6.3007   -2.8336    5.1418 N.3     1  UNL1       -0.3051
     13 C          -6.9830   -1.8079    4.3339 C.3     1  UNL1       -0.0128
     14 C          -5.2988   -2.0977    5.9402 C.3     1  UNL1        0.0019
     15 C          -4.3612   -3.0729    6.6068 C.3     1  UNL1       -0.0028
     16 N          -3.8092   -1.6340    3.5326 N.ar    1  UNL1       -0.1612
     17 C          -4.0012   -0.7920    2.5549 C.ar    1  UNL1        0.2229
     18 N          -5.2628   -0.3227    2.1850 N.pl3   1  UNL1       -0.3091
     19 C          -5.7249    0.4178    1.0415 C.3     1  UNL1        0.0391
     20 C          -6.4870   -0.4272    0.0220 C.ar    1  UNL1       -0.0047
     21 C          -6.2886   -1.8067   -0.2700 C.ar    1  UNL1        0.0733
     22 N          -5.2481   -2.5005    0.3525 N.ar    1  UNL1       -0.3037
     23 C          -5.4541   -3.1406    1.5216 C.ar    1  UNL1        0.0293
     24 C          -4.5063   -4.1301    1.5906 C.ar    1  UNL1        0.0458
     25 N          -3.6190   -4.0246    0.5875 N.ar    1  UNL1       -0.2437
     26 C          -4.1961   -3.1668   -0.2218 C.ar    1  UNL1        0.1004
     27 C          -7.0294   -2.5221   -1.2388 C.ar    1  UNL1        0.0578
     28 N          -6.9035   -3.9429   -1.4665 N.am    1  UNL1       -0.2840
     29 C          -6.7804   -4.8925   -0.4393 C.2     1  UNL1        0.2141
     30 C          -6.1284   -6.2193   -0.7979 C.3     1  UNL1        0.0125
     31 O          -7.2195   -4.7438    0.6719 O.2     1  UNL1       -0.2758
     32 C          -7.8546   -1.7655   -2.0707 C.ar    1  UNL1       -0.0384
     33 C          -8.0108   -0.3823   -1.8705 C.ar    1  UNL1       -0.0596
     34 C          -7.3676    0.2710   -0.8170 C.ar    1  UNL1       -0.0550
     35 N          -2.8776   -0.4041    1.8726 N.ar    1  UNL1       -0.1830
     36 N          -2.9128    0.4853    0.8734 N.ar    1  UNL1       -0.1702
     37 C          -1.6359    0.7280    0.6610 C.ar    1  UNL1        0.0554
     38 H           0.8350    0.9242   -0.4467 H       1  UNL1        0.0235
     39 H           0.7833   -0.8363   -0.5379 H       1  UNL1        0.0235
     40 H           2.2622   -0.0134    0.0211 H       1  UNL1        0.0235
     41 H           1.0258   -0.9980    1.9418 H       1  UNL1        0.0345
     42 H           0.7648    2.0644    1.9042 H       1  UNL1        0.0235
     43 H           0.7481    1.0485    3.3450 H       1  UNL1        0.0235
     44 H           2.2220    1.1520    2.3570 H       1  UNL1        0.0235
     45 H          -2.9406   -4.6123    6.1914 H       1  UNL1        0.0735
     46 H          -5.0043   -5.5577    5.3904 H       1  UNL1        0.0313
     47 H          -3.9306   -5.2665    4.0497 H       1  UNL1        0.0313
     48 H          -6.3248   -4.4052    3.6916 H       1  UNL1        0.0428
     49 H          -5.0172   -3.2401    3.6546 H       1  UNL1        0.0428
     50 H          -7.6385   -1.1296    4.8811 H       1  UNL1        0.0391
     51 H          -6.2232   -1.1192    4.0089 H       1  UNL1        0.0391
     52 H          -7.5550   -2.1772    3.4737 H       1  UNL1        0.0391
     53 H          -4.6927   -1.3706    5.3988 H       1  UNL1        0.0428
     54 H          -5.8340   -1.4683    6.6512 H       1  UNL1        0.0428
     55 H          -4.9998   -3.7582    7.1810 H       1  UNL1        0.0313
     56 H          -3.7029   -2.5427    7.2888 H       1  UNL1        0.0313
     57 H          -5.9874   -0.9813    2.3957 H       1  UNL1        0.1492
     58 H          -6.4280    1.1500    1.4663 H       1  UNL1        0.0512
     59 H          -4.9821    1.0060    0.5165 H       1  UNL1        0.0512
     60 H          -6.3606   -2.9623    2.0779 H       1  UNL1        0.0829
     61 H          -4.5022   -4.9596    2.2725 H       1  UNL1        0.0845
     62 H          -3.9742   -3.0874   -1.2672 H       1  UNL1        0.1032
     63 H          -7.3506   -4.3060   -2.2942 H       1  UNL1        0.1549
     64 H          -5.0343   -6.1784   -0.8624 H       1  UNL1        0.0323
     65 H          -6.3547   -6.8936    0.0387 H       1  UNL1        0.0323
     66 H          -6.5592   -6.6393   -1.7033 H       1  UNL1        0.0323
     67 H          -8.3877   -2.2285   -2.8936 H       1  UNL1        0.0637
     68 H          -8.6251    0.2007   -2.5547 H       1  UNL1        0.0618
     69 H          -7.5038    1.3480   -0.6976 H       1  UNL1        0.0621
     70 H          -1.3815    1.4842   -0.0673 H       1  UNL1        0.0851
@<TRIPOS>BOND
     1     1     2    1
     2     2     3    1
     3     2     4    1
     4     4     5   ar
     5     5     6   ar
     6     6     7   ar
     7     7     8    1
     8     8     9    1
     9     9    10    1
    10    10    11    1
    11    11    12    1
    12    12    13    1
    13    12    14    1
    14    14    15    1
    15     9    15    1
    16     7    16   ar
    17    16    17   ar
    18    17    18    1
    19    18    19    1
    20    19    20    1
    21    20    21   ar
    22    21    22    1
    23    22    23   ar
    24    23    24   ar
    25    24    25   ar
    26    25    26   ar
    27    22    26   ar
    28    21    27   ar
    29    27    28    1
    30    28    29   am
    31    29    30    1
    32    29    31    2
    33    27    32   ar
    34    32    33   ar
    35    33    34   ar
    36    20    34   ar
    37    17    35   ar
    38     5    35   ar
    39    35    36   ar
    40    36    37   ar
    41     4    37   ar
    42     1    38    1
    43     1    39    1
    44     1    40    1
    45     2    41    1
    46     3    42    1
    47     3    43    1
    48     3    44    1
    49     9    45    1
    50    10    46    1
    51    10    47    1
    52    11    48    1
    53    11    49    1
    54    13    50    1
    55    13    51    1
    56    13    52    1
    57    14    53    1
    58    14    54    1
    59    15    55    1
    60    15    56    1
    61    18    57    1
    62    19    58    1
    63    19    59    1
    64    23    60    1
    65    24    61    1
    66    26    62    1
    67    28    63    1
    68    30    64    1
    69    30    65    1
    70    30    66    1
    71    32    67    1
    72    33    68    1
    73    34    69    1
    74    37    70    1
