@<TRIPOS>MOLECULE
*****
 70 74 0 0 0
SMALL
GASTEIGER

@<TRIPOS>ATOM
      1 C           1.0829   -0.0243    0.0224 C.3     1  UNL1       -0.0585
      2 C           0.5772    0.6537    1.2873 C.3     1  UNL1       -0.0165
      3 C           1.0358    2.1020    1.4181 C.3     1  UNL1       -0.0585
      4 C          -0.8890    0.6561    1.2551 C.ar    1  UNL1        0.0193
      5 C          -1.7293    0.4378    2.3034 C.ar    1  UNL1        0.1677
      6 N          -1.5789    0.1111    3.6384 N.ar    1  UNL1       -0.1753
      7 C          -2.6606    0.0445    4.3126 C.ar    1  UNL1        0.3231
      8 O          -2.6363   -0.3735    5.6432 O.3     1  UNL1       -0.4590
      9 C          -3.6574   -0.6264    6.7296 C.3     1  UNL1        0.1057
     10 C          -4.5711   -1.8300    6.4844 C.3     1  UNL1       -0.0028
     11 C          -5.5374   -1.4268    5.4155 C.3     1  UNL1        0.0019
     12 N          -6.3050   -0.1753    5.6559 N.3     1  UNL1       -0.3051
     13 C          -6.9489    0.1814    4.4091 C.3     1  UNL1       -0.0128
     14 C          -5.4145    0.9820    5.9787 C.3     1  UNL1        0.0019
     15 C          -4.4963    0.6010    7.1005 C.3     1  UNL1       -0.0028
     16 N          -3.9067    0.3391    3.7644 N.ar    1  UNL1       -0.1612
     17 C          -4.0934    0.6255    2.5057 C.ar    1  UNL1        0.2229
     18 N          -5.3503    0.8608    1.9046 N.pl3   1  UNL1       -0.3091
     19 C          -5.8113    0.9056    0.5423 C.3     1  UNL1        0.0390
     20 C          -6.5923   -0.3490    0.1621 C.ar    1  UNL1       -0.0064
     21 C          -6.1338   -1.6539    0.3725 C.ar    1  UNL1        0.0539
     22 N          -4.9933   -1.9950    1.1107 N.ar    1  UNL1       -0.3055
     23 C          -5.0124   -2.1708    2.4613 C.ar    1  UNL1        0.0293
     24 C          -3.7461   -2.5803    2.8071 C.ar    1  UNL1        0.0458
     25 N          -3.0388   -2.8942    1.6896 N.ar    1  UNL1       -0.2437
     26 C          -3.8669   -2.6549    0.6949 C.ar    1  UNL1        0.1004
     27 C          -6.8330   -2.7557   -0.0951 C.ar    1  UNL1       -0.0162
     28 C          -7.9563   -2.6423   -0.8926 C.ar    1  UNL1        0.0354
     29 N          -8.5480   -3.8064   -1.4489 N.am    1  UNL1       -0.2857
     30 C          -8.0804   -5.1013   -1.2283 C.2     1  UNL1        0.2141
     31 C          -8.8080   -6.2031   -1.9250 C.3     1  UNL1        0.0125
     32 O          -7.1342   -5.4420   -0.5186 O.2     1  UNL1       -0.2758
     33 C          -8.4417   -1.3539   -1.1392 C.ar    1  UNL1       -0.0400
     34 C          -7.7834   -0.2240   -0.5906 C.ar    1  UNL1       -0.0534
     35 N          -2.9575    0.6542    1.7514 N.ar    1  UNL1       -0.1830
     36 N          -2.9826    0.9210    0.4416 N.ar    1  UNL1       -0.1702
     37 C          -1.7040    0.9490    0.1357 C.ar    1  UNL1        0.0554
     38 H           0.7468    0.5094   -0.8751 H       1  UNL1        0.0235
     39 H           0.6789   -1.0437   -0.0448 H       1  UNL1        0.0235
     40 H           2.1694   -0.0658    0.0102 H       1  UNL1        0.0235
     41 H           0.9185    0.0845    2.1609 H       1  UNL1        0.0345
     42 H           0.6620    2.7108    0.5851 H       1  UNL1        0.0235
     43 H           0.6376    2.5525    2.3381 H       1  UNL1        0.0235
     44 H           2.1230    2.1621    1.4424 H       1  UNL1        0.0235
     45 H          -3.0673   -0.8891    7.6177 H       1  UNL1        0.0735
     46 H          -5.1605   -2.1288    7.3579 H       1  UNL1        0.0313
     47 H          -3.9842   -2.7029    6.1650 H       1  UNL1        0.0313
     48 H          -6.1724   -2.2683    5.1138 H       1  UNL1        0.0428
     49 H          -4.8628   -1.2917    4.5995 H       1  UNL1        0.0428
     50 H          -7.4662    1.1407    4.3336 H       1  UNL1        0.0391
     51 H          -6.0692    0.3607    3.8640 H       1  UNL1        0.0391
     52 H          -7.4882   -0.6039    3.8687 H       1  UNL1        0.0391
     53 H          -4.7758    1.4014    5.2009 H       1  UNL1        0.0428
     54 H          -6.0265    1.8633    6.1838 H       1  UNL1        0.0428
     55 H          -5.1471    0.3872    7.9557 H       1  UNL1        0.0313
     56 H          -3.8444    1.4394    7.3508 H       1  UNL1        0.0313
     57 H          -6.1329    0.4493    2.3597 H       1  UNL1        0.1492
     58 H          -6.5164    1.7477    0.5356 H       1  UNL1        0.0512
     59 H          -5.0759    1.1172   -0.2223 H       1  UNL1        0.0512
     60 H          -5.8816   -1.8566    3.0064 H       1  UNL1        0.0829
     61 H          -3.2963   -2.6284    3.7933 H       1  UNL1        0.0845
     62 H          -3.6979   -2.9118   -0.3362 H       1  UNL1        0.1032
     63 H          -6.4323   -3.7139    0.2013 H       1  UNL1        0.0657
     64 H          -9.3353   -3.6724   -2.0713 H       1  UNL1        0.1548
     65 H          -8.0772   -6.7420   -2.5379 H       1  UNL1        0.0323
     66 H          -9.1850   -6.8829   -1.1536 H       1  UNL1        0.0323
     67 H          -9.6281   -5.8534   -2.5469 H       1  UNL1        0.0323
     68 H          -9.3132   -1.1879   -1.7696 H       1  UNL1        0.0636
     69 H          -8.1907    0.7673   -0.7996 H       1  UNL1        0.0622
     70 H          -1.4395    1.1933   -0.8810 H       1  UNL1        0.0851
@<TRIPOS>BOND
     1     1     2    1
     2     2     3    1
     3     2     4    1
     4     4     5   ar
     5     5     6   ar
     6     6     7   ar
     7     7     8    1
     8     8     9    1
     9     9    10    1
    10    10    11    1
    11    11    12    1
    12    12    13    1
    13    12    14    1
    14    14    15    1
    15     9    15    1
    16     7    16   ar
    17    16    17   ar
    18    17    18    1
    19    18    19    1
    20    19    20    1
    21    20    21   ar
    22    21    22    1
    23    22    23   ar
    24    23    24   ar
    25    24    25   ar
    26    25    26   ar
    27    22    26   ar
    28    21    27   ar
    29    27    28   ar
    30    28    29    1
    31    29    30   am
    32    30    31    1
    33    30    32    2
    34    28    33   ar
    35    33    34   ar
    36    20    34   ar
    37    17    35   ar
    38     5    35   ar
    39    35    36   ar
    40    36    37   ar
    41     4    37   ar
    42     1    38    1
    43     1    39    1
    44     1    40    1
    45     2    41    1
    46     3    42    1
    47     3    43    1
    48     3    44    1
    49     9    45    1
    50    10    46    1
    51    10    47    1
    52    11    48    1
    53    11    49    1
    54    13    50    1
    55    13    51    1
    56    13    52    1
    57    14    53    1
    58    14    54    1
    59    15    55    1
    60    15    56    1
    61    18    57    1
    62    19    58    1
    63    19    59    1
    64    23    60    1
    65    24    61    1
    66    26    62    1
    67    27    63    1
    68    29    64    1
    69    31    65    1
    70    31    66    1
    71    31    67    1
    72    33    68    1
    73    34    69    1
    74    37    70    1
