@<TRIPOS>MOLECULE
*****
 43 48 0 0 0
SMALL
GASTEIGER

@<TRIPOS>ATOM
      1 C          11.3996    5.3814   -8.8217 C.ar    1  UNL1        0.1336
      2 N          12.5727    6.0071   -9.2014 N.ar    1  UNL1       -0.1796
      3 C          12.5727    7.3621   -9.3912 C.ar    1  UNL1        0.3208
      4 N          11.5382    8.1439   -9.0521 N.ar    1  UNL1       -0.1971
      5 C          10.3620    7.5223   -8.7402 C.ar    1  UNL1        0.0823
      6 C          10.2712    6.1445   -8.5863 C.ar    1  UNL1        0.0266
      7 C           9.0442    5.5061   -8.0206 C.3     1  UNL1        0.0519
      8 C           8.1408    6.4905   -7.2831 C.3     1  UNL1        0.0959
      9 N           7.8499    7.6921   -8.0893 N.pl3   1  UNL1       -0.3020
     10 C           9.1253    8.4068   -8.4601 C.3     1  UNL1        0.1371
     11 C           6.6082    7.8917   -8.7172 C.ar    1  UNL1        0.0489
     12 C           5.4278    7.8801   -7.9318 C.ar    1  UNL1        0.0146
     13 C           4.1821    7.9869   -8.5436 C.ar    1  UNL1        0.0013
     14 C           4.0504    8.3134   -9.8926 C.ar    1  UNL1        0.0001
     15 C           5.2074    8.6589  -10.6458 C.ar    1  UNL1        0.0020
     16 C           5.1520    9.3201  -11.9685 C.ar    1  UNL1        0.0001
     17 C           4.5526    8.5153  -12.8069 C.ar    1  UNL1        0.0009
     18 C           5.6802    7.7266  -12.9206 C.ar    1  UNL1        0.0114
     19 C           6.7579    7.6185  -11.6134 C.ar    1  UNL1        0.0588
     20 CL          8.4929    7.9131  -11.6966 Cl      1  UNL1       -0.0822
     21 C           6.3025    8.0107  -10.2669 C.ar    1  UNL1        0.0239
     22 C          12.1345   -0.1300   -7.9504 C.2     1  UNL1        0.2767
     23 O          12.7340   -0.9073   -8.6956 O.2     1  UNL1       -0.2674
     24 N          12.1781    1.2428   -8.1460 N.am    1  UNL1       -0.2714
     25 C          12.2603    1.7328   -9.5256 C.3     1  UNL1        0.1152
     26 C          11.2570    2.9252   -9.7214 C.3     1  UNL1        0.1137
     27 N          11.2940    3.9732   -8.6212 N.pl3   1  UNL1       -0.2899
     28 C          11.2926    3.4242   -7.2664 C.3     1  UNL1        0.1130
     29 C          12.3753    2.3141   -7.1125 C.3     1  UNL1        0.1106
     30 C          11.5200   -0.9416   -5.6776 C.2     1  UNL1        0.0368
     31 C          11.1631   -0.6771   -6.9433 C.2     1  UNL1        0.1934
     32 F           9.9394   -1.0287   -7.3867 F       1  UNL1       -0.1994
     33 C          13.7728    2.9852   -7.2552 C.3     1  UNL1        0.1269
     34 C          14.6759    2.4547   -6.1537 C.1     1  UNL1        0.0750
     35 N          15.4250    2.0147   -5.2398 N.1     1  UNL1       -0.1958
     36 O          13.6037    7.8944  -10.2112 O.3     1  UNL1       -0.4452
     37 C          14.8222    8.3656   -9.5579 C.3     1  UNL1        0.2244
     38 C          14.7063    8.9448   -8.1110 C.3     1  UNL1        0.1017
     39 C          14.8941   10.4817   -8.0739 C.3     1  UNL1        0.0212
     40 C          15.7144   10.7665   -6.8119 C.3     1  UNL1        0.0188
     41 C          15.8643    9.4295   -6.1144 C.3     1  UNL1        0.0722
     42 N          15.7245    8.4740   -7.1841 N.3     1  UNL1       -0.2696
     43 C          15.5428    7.1130   -6.7074 C.3     1  UNL1        0.0897
@<TRIPOS>BOND
     1    30    31    2
     2    31    32    1
     3    31    22    1
     4    22    23    2
     5    22    24   am
     6    24    25    1
     7    25    26    1
     8    26    27    1
     9    27     1    1
    10     1     2   ar
    11     2     3   ar
    12     3    36    1
    13    36    37    1
    14    38    39    1
    15    39    40    1
    16    40    41    1
    17    41    42    1
    18    38    42    1
    19    42    43    1
    20     3     4   ar
    21     4     5   ar
    22     5     6   ar
    23     1     6   ar
    24     6     7    1
    25     7     8    1
    26     8     9    1
    27     9    11    1
    28    11    12   ar
    29    12    13   ar
    30    13    14   ar
    31    14    15   ar
    32    15    16   ar
    33    16    17   ar
    34    17    18   ar
    35    18    19   ar
    36    19    20    1
    37    19    21   ar
    38    11    21   ar
    39    15    21   ar
    40     9    10    1
    41     5    10    1
    42    27    28    1
    43    28    29    1
    44    24    29    1
    45    33    34    1
    46    34    35    3
    47    38    37    1
    48    29    33    1
