@<TRIPOS>MOLECULE
*****
 134 142 0 0 0
SMALL
GASTEIGER

@<TRIPOS>ATOM
      1 C          13.2362    6.1608    6.7489 C.3     1  UNL1       -0.0452
      2 C          12.7305    5.2701    5.5169 C.3     1  UNL1        0.0361
      3 C          12.8647    5.9824    4.1252 C.3     1  UNL1        0.0173
      4 N          14.1964    6.4088    3.5916 N.3     1  UNL1       -0.3005
      5 C          14.7851    5.3583    2.7595 C.3     1  UNL1        0.0004
      6 C          14.5461    3.8488    3.1542 C.3     1  UNL1       -0.0243
      7 C          14.4051    3.3678    4.6272 C.3     1  UNL1        0.0164
      8 N          13.2650    3.8691    5.3775 N.pl3   1  UNL1       -0.2956
      9 C          12.6617    2.8205    5.9771 C.ar    1  UNL1        0.2187
     10 N          13.3097    2.1380    6.9404 N.ar    1  UNL1       -0.2227
     11 C          12.7309    1.0139    7.3719 C.ar    1  UNL1        0.0333
     12 C          11.5753    0.5360    6.8221 C.ar    1  UNL1       -0.0142
     13 C          11.0862    1.2537    5.7549 C.ar    1  UNL1        0.1162
     14 N          11.5972    2.3989    5.3274 N.ar    1  UNL1       -0.2111
     15 C           9.8764    0.8673    5.0932 C.ar    1  UNL1        0.2206
     16 N           9.7661    0.5610    3.7912 N.ar    1  UNL1       -0.0544
     17 O           8.4045    0.2841    3.6540 O.2     1  UNL1       -0.3367
     18 C           7.8420    0.4929    4.8887 C.ar    1  UNL1        0.2380
     19 N           8.7152    0.8096    5.8071 N.ar    1  UNL1       -0.1893
     20 C           6.3678    0.2477    5.0553 C.3     1  UNL1        0.0736
     21 C           6.1123   -1.2788    4.6875 C.3     1  UNL1       -0.0347
     22 C           6.6073   -2.2288    5.7822 C.3     1  UNL1       -0.0473
     23 C           5.7900   -2.0109    7.0357 C.3     1  UNL1       -0.0210
     24 C           5.7134   -0.5740    7.3840 C.ar    1  UNL1       -0.0030
     25 C           5.9247    0.5161    6.5572 C.ar    1  UNL1       -0.0031
     26 C           5.7377    1.7550    7.3688 C.ar    1  UNL1        0.0840
     27 C           5.3693    1.4621    8.6920 C.ar    1  UNL1        0.0810
     28 S           5.2817   -0.2127    8.9620 S.2     1  UNL1       -0.0774
     29 N           5.0651    2.1623    9.8067 N.pl3   1  UNL1       -0.3516
     30 C           5.8928    3.0955    6.9002 C.1     1  UNL1        0.1019
     31 N           5.9940    4.2073    6.4882 N.1     1  UNL1       -0.1908
     32 C           5.5949    1.0980    4.0361 C.3     1  UNL1       -0.0469
     33 C          15.1613    6.8747    4.6145 C.3     1  UNL1       -0.0009
     34 C          15.6920    5.6680    5.3984 C.3     1  UNL1       -0.0371
     35 C          16.7681    4.7640    4.8767 C.3     1  UNL1       -0.0174
     36 C          17.9641    5.5653    4.6844 C.3     1  UNL1        0.0913
     37 O          18.4810    5.8952    5.9728 O.3     1  UNL1       -0.4743
     38 C          17.7083    6.6755    6.7975 C.ar    1  UNL1        0.2541
     39 C          18.2950    7.5995    7.5636 C.ar    1  UNL1        0.0895
     40 N          17.2929    8.2916    8.2203 N.ar    1  UNL1       -0.2358
     41 N          16.1754    7.5960    8.0943 N.ar    1  UNL1       -0.0614
     42 N          16.5592    6.4884    7.5096 N.ar    1  UNL1       -0.0917
     43 C          17.2109    9.4466    9.1241 C.3     1  UNL1        0.1326
     44 C          18.0297    9.2456   10.4258 C.3     1  UNL1       -0.0157
     45 C          19.4813    9.0911   10.0766 C.3     1  UNL1       -0.0603
     46 C          17.9362   10.4315   11.3904 C.3     1  UNL1       -0.0603
     47 C          17.4229   10.8219    8.4286 C.2     1  UNL1        0.2412
     48 O          16.6148   11.7365    8.6164 O.2     1  UNL1       -0.2732
     49 N          18.5943   11.0717    7.7209 N.am    1  UNL1       -0.2856
     50 C          19.3007   10.0880    6.9726 C.3     1  UNL1        0.0416
     51 C          20.7732   10.3854    6.9349 C.3     1  UNL1        0.0731
     52 C          20.7609   11.8797    7.1354 C.3     1  UNL1        0.0018
     53 C          19.5085   12.1737    8.0082 C.3     1  UNL1        0.1047
     54 C          18.8303   13.4962    7.6838 C.2     1  UNL1        0.2342
     55 O          18.8457   14.4185    8.4998 O.2     1  UNL1       -0.2738
     56 N          18.2658   13.6829    6.4510 N.am    1  UNL1       -0.3047
     57 CA         18.1841   12.7434    5.3339 C.3     1  UNL1        0.0714
     58 C          16.7497   12.2976    5.0144 C.3     1  UNL1        0.0667
     59 O          15.9432   13.3832    4.5782 O.3     1  UNL1       -0.3928
     60 C          18.9738   13.2321    4.1484 C.ar    1  UNL1       -0.0250
     61 C          18.5237   14.3269    3.4182 C.ar    1  UNL1       -0.0561
     62 C          19.2008   14.7410    2.2828 C.ar    1  UNL1       -0.0532
     63 C          20.4416   14.1969    1.9632 C.ar    1  UNL1       -0.0095
     64 C          20.8920   13.0766    2.6742 C.ar    1  UNL1       -0.0532
     65 C          20.1469   12.5795    3.7360 C.ar    1  UNL1       -0.0561
     66 C          21.1984   14.7512    0.8483 C.ar    1  UNL1        0.0417
     67 C          21.6343   16.0422    0.5314 C.ar    1  UNL1        0.0531
     68 N          22.2835   16.1165   -0.7071 N.ar    1  UNL1       -0.2520
     69 C          22.3181   14.9302   -1.2732 C.ar    1  UNL1        0.0655
     70 S          21.6188   13.6496   -0.4056 S.2     1  UNL1       -0.0752
     71 C          21.5049   17.3220    1.3238 C.3     1  UNL1       -0.0212
     72 O          21.4786    9.7120    7.9795 O.3     1  UNL1       -0.3902
     73 H          14.1223    6.7679    6.6104 H       1  UNL1        0.0248
     74 H          13.5444    5.5799    7.6228 H       1  UNL1        0.0248
     75 H          12.5682    6.9994    6.9725 H       1  UNL1        0.0248
     76 H          11.6644    5.1681    5.7382 H       1  UNL1        0.0510
     77 H          12.4158    5.3057    3.3818 H       1  UNL1        0.0445
     78 H          12.2038    6.8529    4.1233 H       1  UNL1        0.0445
     79 H          14.4246    5.4926    1.7328 H       1  UNL1        0.0427
     80 H          15.8506    5.6076    2.6162 H       1  UNL1        0.0427
     81 H          13.6713    3.4880    2.6131 H       1  UNL1        0.0293
     82 H          15.3948    3.2949    2.7177 H       1  UNL1        0.0293
     83 H          14.6894    2.3010    4.6940 H       1  UNL1        0.0465
     84 H          15.1771    3.5626    5.3343 H       1  UNL1        0.0465
     85 H          13.2284    0.5084    8.1929 H       1  UNL1        0.0831
     86 H          11.0713   -0.3373    7.2012 H       1  UNL1        0.0655
     87 H           6.5888   -1.5633    3.7393 H       1  UNL1        0.0278
     88 H           5.0358   -1.4552    4.5498 H       1  UNL1        0.0278
     89 H           6.4977   -3.2760    5.4818 H       1  UNL1        0.0269
     90 H           7.6714   -2.0590    5.9856 H       1  UNL1        0.0269
     91 H           4.7651   -2.3675    6.8814 H       1  UNL1        0.0318
     92 H           6.2350   -2.5758    7.8602 H       1  UNL1        0.0318
     93 H           5.0433    3.1629    9.9529 H       1  UNL1        0.1428
     94 H           4.8416    1.6111   10.6390 H       1  UNL1        0.1428
     95 H           6.1616    1.2467    3.1070 H       1  UNL1        0.0243
     96 H           4.6481    0.6260    3.7523 H       1  UNL1        0.0243
     97 H           5.3606    2.0859    4.4310 H       1  UNL1        0.0243
     98 H          15.9952    7.4474    4.2051 H       1  UNL1        0.0427
     99 H          14.6582    7.6764    5.1731 H       1  UNL1        0.0427
    100 H          15.6993    5.4226    6.4458 H       1  UNL1        0.0279
    101 H          14.7818    5.2053    5.5394 H       1  UNL1        0.0279
    102 H          16.9741    3.9270    5.5672 H       1  UNL1        0.0298
    103 H          16.5447    4.3145    3.9335 H       1  UNL1        0.0298
    104 H          18.6082    4.8761    4.1161 H       1  UNL1        0.0697
    105 H          17.7468    6.4069    4.0180 H       1  UNL1        0.0697
    106 H          19.3660    7.6868    7.5578 H       1  UNL1        0.0881
    107 H          16.1558    9.4762    9.4609 H       1  UNL1        0.0644
    108 H          17.6987    8.3347   10.9406 H       1  UNL1        0.0321
    109 H          19.7307   10.0287    9.6065 H       1  UNL1        0.0233
    110 H          20.1752    8.9638   10.8970 H       1  UNL1        0.0233
    111 H          19.6531    8.2569    9.4077 H       1  UNL1        0.0233
    112 H          16.9377   10.5290   11.8194 H       1  UNL1        0.0233
    113 H          18.6551   10.3019   12.2081 H       1  UNL1        0.0233
    114 H          18.1940   11.3766   10.8987 H       1  UNL1        0.0233
    115 H          18.7973    9.8624    6.0261 H       1  UNL1        0.0490
    116 H          19.2683    9.3229    7.6589 H       1  UNL1        0.0490
    117 H          21.2104   10.0006    6.0127 H       1  UNL1        0.0610
    118 H          21.6946   12.2552    7.5475 H       1  UNL1        0.0313
    119 H          20.6490   12.3375    6.1654 H       1  UNL1        0.0313
    120 H          19.7820   12.1404    9.0685 H       1  UNL1        0.0597
    121 H          17.8615   14.6012    6.3408 H       1  UNL1        0.1494
    122 HA         18.6713   11.8279    5.5995 H       1  UNL1        0.0571
    123 H1         16.7678   11.5290    4.2328 H       1  UNL1        0.0579
    124 H2         16.2699   11.8639    5.8967 H       1  UNL1        0.0579
    125 H          16.0195   14.0658    5.2660 H       1  UNL1        0.2095
    126 H          17.6202   14.8515    3.7077 H       1  UNL1        0.0621
    127 H          18.7304   15.4721    1.6333 H       1  UNL1        0.0624
    128 H          21.8048   12.5528    2.3963 H       1  UNL1        0.0624
    129 H          20.5169   11.6871    4.2348 H       1  UNL1        0.0621
    130 H          22.7557   14.7267   -2.2395 H       1  UNL1        0.0907
    131 H          22.4863   17.7636    1.5448 H       1  UNL1        0.0293
    132 H          20.9376   18.0856    0.7746 H       1  UNL1        0.0293
    133 H          21.0001   17.1721    2.2828 H       1  UNL1        0.0293
    134 H          21.3042   10.1362    8.8342 H       1  UNL1        0.2098
@<TRIPOS>BOND
     1     2     3    1
     2     3     4    1
     3     4     5    1
     4     5     6    1
     5     6     7    1
     6     7     8    1
     7     2     8    1
     8     8     9    1
     9     9    10   ar
    10    10    11   ar
    11    11    12   ar
    12    12    13   ar
    13    13    14   ar
    14     9    14   ar
    15    13    15    1
    16    15    16   ar
    17    16    17   ar
    18    17    18   ar
    19    18    19   ar
    20    15    19   ar
    21    20    21    1
    22    21    22    1
    23    22    23    1
    24    23    24    1
    25    24    25   ar
    26    20    25    1
    27    25    26   ar
    28    26    27   ar
    29    27    28   ar
    30    24    28   ar
    31    27    29    1
    32    26    30    1
    33    30    31    3
    34     4    33    1
    35    33    34    1
    36    34    35    1
    37    35    36    1
    38    36    37    1
    39    37    38    1
    40    38    39   ar
    41    39    40   ar
    42    40    41   ar
    43    41    42   ar
    44    38    42   ar
    45    40    43    1
    46    43    44    1
    47    44    45    1
    48    44    46    1
    49    43    47    1
    50    47    48    2
    51    47    49   am
    52    49    50    1
    53    50    51    1
    54    51    52    1
    55    52    53    1
    56    49    53    1
    57    53    54    1
    58    54    55    2
    59    54    56   am
    60    56    57    1
    61    57    58    1
    62    58    59    1
    63    57    60    1
    64    60    61   ar
    65    61    62   ar
    66    62    63   ar
    67    63    64   ar
    68    64    65   ar
    69    60    65   ar
    70    63    66    1
    71    66    67   ar
    72    67    68   ar
    73    68    69   ar
    74    69    70   ar
    75    66    70   ar
    76    67    71    1
    77    51    72    1
    78     1    73    1
    79     1    74    1
    80     1    75    1
    81     3    77    1
    82     3    78    1
    83     5    79    1
    84     5    80    1
    85     6    81    1
    86     6    82    1
    87     7    83    1
    88     7    84    1
    89    11    85    1
    90    12    86    1
    91    21    87    1
    92    21    88    1
    93    22    89    1
    94    22    90    1
    95    23    91    1
    96    23    92    1
    97    29    93    1
    98    29    94    1
    99    32    95    1
   100    32    96    1
   101    32    97    1
   102    33    98    1
   103    33    99    1
   104    34   100    1
   105    34   101    1
   106    35   102    1
   107    35   103    1
   108    36   104    1
   109    36   105    1
   110    39   106    1
   111    43   107    1
   112    44   108    1
   113    45   109    1
   114    45   110    1
   115    45   111    1
   116    46   112    1
   117    46   113    1
   118    46   114    1
   119    50   115    1
   120    50   116    1
   121    51   117    1
   122    52   118    1
   123    52   119    1
   124    53   120    1
   125    56   121    1
   126    57   122    1
   127    58   123    1
   128    58   124    1
   129    59   125    1
   130    61   126    1
   131    62   127    1
   132    64   128    1
   133    65   129    1
   134    69   130    1
   135    71   131    1
   136    71   132    1
   137    71   133    1
   138    72   134    1
   139     2    76    1
   140     2     1    1
   141    20    32    1
   142    20    18    1
