@<TRIPOS>MOLECULE
*****
 134 142 0 0 0
SMALL
GASTEIGER

@<TRIPOS>ATOM
      1 C          -7.7075    9.8022   -8.0086 C.3     1  UNL1       -0.0452
      2 C          -7.5352    8.2737   -7.5746 C.3     1  UNL1        0.0361
      3 C          -8.6323    7.8131   -6.5413 C.3     1  UNL1        0.0173
      4 N         -10.0997    7.8383   -6.8710 N.3     1  UNL1       -0.3005
      5 C         -10.5286    6.5551   -7.4314 C.3     1  UNL1        0.0004
      6 C          -9.5250    5.7514   -8.3453 C.3     1  UNL1       -0.0243
      7 C          -8.4884    6.4365   -9.2828 C.3     1  UNL1        0.0164
      8 N          -7.4357    7.2150   -8.6449 N.pl3   1  UNL1       -0.2956
      9 C          -6.2607    6.8238   -9.1936 C.ar    1  UNL1        0.2187
     10 N          -6.0971    6.9465  -10.5296 N.ar    1  UNL1       -0.2227
     11 C          -5.1013    6.2574  -11.0932 C.ar    1  UNL1        0.0333
     12 C          -4.3069    5.4173  -10.3695 C.ar    1  UNL1       -0.0142
     13 C          -4.6321    5.2952   -9.0362 C.ar    1  UNL1        0.1162
     14 N          -5.5766    6.0014   -8.4227 N.ar    1  UNL1       -0.2111
     15 C          -3.8600    4.4490   -8.1735 C.ar    1  UNL1        0.2206
     16 N          -4.3220    3.3985   -7.4762 N.ar    1  UNL1       -0.0544
     17 O          -3.1822    2.9550   -6.7928 O.2     1  UNL1       -0.3367
     18 C          -2.1698    3.8131   -7.1414 C.ar    1  UNL1        0.2380
     19 N          -2.5309    4.7071   -8.0221 N.ar    1  UNL1       -0.1893
     20 C          -0.7993    3.6105   -6.5594 C.3     1  UNL1        0.0736
     21 C          -0.3110    2.1562   -6.9719 C.3     1  UNL1       -0.0347
     22 C           0.0920    2.0762   -8.4460 C.3     1  UNL1       -0.0473
     23 C           1.2999    2.9553   -8.6803 C.3     1  UNL1       -0.0210
     24 C           1.0982    4.3094   -8.1181 C.ar    1  UNL1       -0.0030
     25 C           0.2035    4.7000   -7.1377 C.ar    1  UNL1       -0.0031
     26 C           0.3702    6.1678   -6.9159 C.ar    1  UNL1        0.0840
     27 C           1.3920    6.7030   -7.7174 C.ar    1  UNL1        0.0810
     28 S           2.0967    5.5172   -8.7089 S.2     1  UNL1       -0.0774
     29 N           1.9646    7.9118   -7.9092 N.pl3   1  UNL1       -0.3516
     30 C          -0.3881    6.9711   -6.0058 C.1     1  UNL1        0.1019
     31 N          -1.0022    7.6205   -5.2250 N.1     1  UNL1       -0.1908
     32 C          -0.8778    3.6343   -5.0293 C.3     1  UNL1       -0.0469
     33 C         -10.5410    8.9528   -7.7455 C.3     1  UNL1       -0.0009
     34 C         -10.0454    8.6883   -9.1720 C.3     1  UNL1       -0.0371
     35 C         -10.7369    7.7603  -10.1268 C.3     1  UNL1       -0.0174
     36 C         -12.0715    8.2834  -10.3539 C.3     1  UNL1        0.0913
     37 O         -11.9582    9.4662  -11.1482 O.3     1  UNL1       -0.4743
     38 C         -11.2522   10.5270  -10.6312 C.ar    1  UNL1        0.2541
     39 C         -11.6793   11.7781  -10.8428 C.ar    1  UNL1        0.0895
     40 N         -10.8247   12.6313  -10.1726 N.ar    1  UNL1       -0.2358
     41 N          -9.7694   11.9275   -9.7976 N.ar    1  UNL1       -0.0614
     42 N          -9.9301   10.7786  -10.4083 N.ar    1  UNL1       -0.0917
     43 C         -10.7122   14.0743   -9.9482 C.3     1  UNL1        0.1326
     44 C         -10.5822   14.8928  -11.2574 C.3     1  UNL1       -0.0157
     45 C         -11.8128   14.6946  -12.1005 C.3     1  UNL1       -0.0603
     46 C         -10.4389   16.3993  -11.0165 C.3     1  UNL1       -0.0603
     47 C         -11.7481   14.6327   -8.9526 C.2     1  UNL1        0.2412
     48 O         -11.3724   15.3404   -8.0135 O.2     1  UNL1       -0.2732
     49 N         -13.1013   14.4493   -9.1989 N.am    1  UNL1       -0.2856
     50 C         -13.6764   13.3130   -9.8411 C.3     1  UNL1        0.0416
     51 C         -15.0179   13.6559  -10.4182 C.3     1  UNL1        0.0731
     52 C         -15.4394   14.7825   -9.5107 C.3     1  UNL1        0.0018
     53 C         -14.1124   15.4988   -9.1288 C.3     1  UNL1        0.1047
     54 C         -14.1204   16.1080   -7.7419 C.2     1  UNL1        0.2342
     55 O         -14.0739   17.3292   -7.5918 O.2     1  UNL1       -0.2738
     56 N         -14.2260   15.2865   -6.6566 N.am    1  UNL1       -0.3047
     57 CA        -14.3566   13.8235   -6.6134 C.3     1  UNL1        0.0714
     58 C         -13.1830   13.1394   -5.9181 C.3     1  UNL1        0.0667
     59 O         -13.1393   13.4956   -4.5441 O.3     1  UNL1       -0.3928
     60 C         -15.7017   13.3927   -6.0914 C.ar    1  UNL1       -0.0250
     61 C         -16.3846   12.2934   -6.6433 C.ar    1  UNL1       -0.0561
     62 C         -17.6668   11.9694   -6.1984 C.ar    1  UNL1       -0.0532
     63 C         -18.2142   12.6370   -5.1023 C.ar    1  UNL1       -0.0095
     64 C         -17.5400   13.7530   -4.5827 C.ar    1  UNL1       -0.0532
     65 C         -16.2963   14.1201   -5.0665 C.ar    1  UNL1       -0.0561
     66 C         -19.4969   12.2279   -4.5373 C.ar    1  UNL1        0.0417
     67 C         -19.9661   11.0516   -3.9417 C.ar    1  UNL1        0.0531
     68 N         -21.3007   11.1396   -3.5196 N.ar    1  UNL1       -0.2520
     69 C         -21.7905   12.3266   -3.8026 C.ar    1  UNL1        0.0655
     70 S         -20.7486   13.4119   -4.5895 S.2     1  UNL1       -0.0752
     71 C         -19.2437    9.7506   -3.6808 C.3     1  UNL1       -0.0212
     72 O         -14.8913   14.0815  -11.7768 O.3     1  UNL1       -0.3902
     73 H          -7.3512   10.0401   -9.0150 H       1  UNL1        0.0248
     74 H          -7.4043   10.5191   -7.2377 H       1  UNL1        0.0248
     75 H          -8.7197   10.1704   -8.0749 H       1  UNL1        0.0248
     76 H          -6.5622    8.2927   -7.0763 H       1  UNL1        0.0510
     77 H          -8.3820    6.7783   -6.2622 H       1  UNL1        0.0445
     78 H          -8.4857    8.3798   -5.6184 H       1  UNL1        0.0445
     79 H         -10.8251    5.9004   -6.6041 H       1  UNL1        0.0427
     80 H         -11.5141    6.7135   -7.9034 H       1  UNL1        0.0427
     81 H          -8.9739    5.0520   -7.7168 H       1  UNL1        0.0293
     82 H         -10.1590    5.1130   -8.9845 H       1  UNL1        0.0293
     83 H          -8.2532    5.7408  -10.1102 H       1  UNL1        0.0465
     84 H          -8.7855    7.1401  -10.0279 H       1  UNL1        0.0465
     85 H          -4.9673    6.4002  -12.1605 H       1  UNL1        0.0831
     86 H          -3.4744    4.8910  -10.8071 H       1  UNL1        0.0655
     87 H          -1.0720    1.3883   -6.7756 H       1  UNL1        0.0278
     88 H           0.5641    1.8734   -6.3686 H       1  UNL1        0.0278
     89 H           0.3567    1.0530   -8.7328 H       1  UNL1        0.0269
     90 H          -0.7401    2.3900   -9.0874 H       1  UNL1        0.0269
     91 H           2.1792    2.5236   -8.1886 H       1  UNL1        0.0318
     92 H           1.4964    3.0191   -9.7544 H       1  UNL1        0.0318
     93 H           1.7542    8.8009   -7.4755 H       1  UNL1        0.1428
     94 H           2.7123    7.9516   -8.6067 H       1  UNL1        0.1428
     95 H           0.0412    3.2355   -4.5872 H       1  UNL1        0.0243
     96 H          -1.0185    4.6479   -4.6527 H       1  UNL1        0.0243
     97 H          -1.7106    3.0266   -4.6485 H       1  UNL1        0.0243
     98 H         -11.6203    9.1165   -7.7584 H       1  UNL1        0.0427
     99 H         -10.2430    9.8839   -7.2428 H       1  UNL1        0.0427
    100 H          -9.3961    9.2292   -9.8371 H       1  UNL1        0.0279
    101 H          -9.1043    8.3736   -8.8949 H       1  UNL1        0.0279
    102 H         -10.1969    7.6644  -11.0860 H       1  UNL1        0.0298
    103 H         -10.8543    6.7636   -9.7600 H       1  UNL1        0.0298
    104 H         -12.5535    7.4413  -10.8755 H       1  UNL1        0.0697
    105 H         -12.5906    8.3919   -9.3957 H       1  UNL1        0.0697
    106 H         -12.5273   11.9355  -11.4791 H       1  UNL1        0.0881
    107 H          -9.7404   14.2172   -9.4335 H       1  UNL1        0.0644
    108 H          -9.7123   14.5411  -11.8264 H       1  UNL1        0.0321
    109 H         -12.6237   15.0874  -11.5044 H       1  UNL1        0.0233
    110 H         -11.8420   15.2243  -13.0434 H       1  UNL1        0.0233
    111 H         -11.9646   13.6478  -12.3408 H       1  UNL1        0.0233
    112 H          -9.4890   16.6467  -10.5376 H       1  UNL1        0.0233
    113 H         -10.4931   16.9344  -11.9716 H       1  UNL1        0.0233
    114 H         -11.2508   16.7904  -10.3925 H       1  UNL1        0.0233
    115 H         -13.6245   12.4327   -9.1896 H       1  UNL1        0.0490
    116 H         -13.0940   13.2572  -10.6992 H       1  UNL1        0.0490
    117 H         -15.6586   12.7731  -10.4425 H       1  UNL1        0.0610
    118 H         -16.1637   15.4438   -9.9806 H       1  UNL1        0.0313
    119 H         -15.9214   14.3290   -8.6463 H       1  UNL1        0.0313
    120 H         -13.8600   16.2586   -9.8780 H       1  UNL1        0.0597
    121 H         -14.2098   15.8038   -5.7909 H       1  UNL1        0.1494
    122 HA        -14.3442   13.4411   -7.6135 H       1  UNL1        0.0571
    123 H1        -13.2791   12.0515   -6.0071 H       1  UNL1        0.0579
    124 H2        -12.2332   13.4271   -6.3786 H       1  UNL1        0.0579
    125 H         -13.0845   14.4657   -4.5210 H       1  UNL1        0.2095
    126 H         -15.9316   11.6805   -7.4208 H       1  UNL1        0.0621
    127 H         -18.2489   11.2182   -6.7267 H       1  UNL1        0.0624
    128 H         -17.9745   14.3731   -3.8033 H       1  UNL1        0.0624
    129 H         -15.7835   14.9676   -4.6233 H       1  UNL1        0.0621
    130 H         -22.7979   12.6444   -3.5738 H       1  UNL1        0.0907
    131 H         -19.2057    9.5098   -2.6094 H       1  UNL1        0.0293
    132 H         -19.7439    8.9032   -4.1699 H       1  UNL1        0.0293
    133 H         -18.2119    9.7678   -4.0432 H       1  UNL1        0.0293
    134 H         -14.3616   14.8930  -11.8251 H       1  UNL1        0.2098
@<TRIPOS>BOND
     1     2     3    1
     2     3     4    1
     3     4     5    1
     4     5     6    1
     5     6     7    1
     6     7     8    1
     7     2     8    1
     8     8     9    1
     9     9    10   ar
    10    10    11   ar
    11    11    12   ar
    12    12    13   ar
    13    13    14   ar
    14     9    14   ar
    15    13    15    1
    16    15    16   ar
    17    16    17   ar
    18    17    18   ar
    19    18    19   ar
    20    15    19   ar
    21    20    21    1
    22    21    22    1
    23    22    23    1
    24    23    24    1
    25    24    25   ar
    26    20    25    1
    27    25    26   ar
    28    26    27   ar
    29    27    28   ar
    30    24    28   ar
    31    27    29    1
    32    26    30    1
    33    30    31    3
    34     4    33    1
    35    33    34    1
    36    34    35    1
    37    35    36    1
    38    36    37    1
    39    37    38    1
    40    38    39   ar
    41    39    40   ar
    42    40    41   ar
    43    41    42   ar
    44    38    42   ar
    45    40    43    1
    46    43    44    1
    47    44    45    1
    48    44    46    1
    49    43    47    1
    50    47    48    2
    51    47    49   am
    52    49    50    1
    53    50    51    1
    54    51    52    1
    55    52    53    1
    56    49    53    1
    57    53    54    1
    58    54    55    2
    59    54    56   am
    60    56    57    1
    61    57    58    1
    62    58    59    1
    63    57    60    1
    64    60    61   ar
    65    61    62   ar
    66    62    63   ar
    67    63    64   ar
    68    64    65   ar
    69    60    65   ar
    70    63    66    1
    71    66    67   ar
    72    67    68   ar
    73    68    69   ar
    74    69    70   ar
    75    66    70   ar
    76    67    71    1
    77    51    72    1
    78     1    73    1
    79     1    74    1
    80     1    75    1
    81     3    77    1
    82     3    78    1
    83     5    79    1
    84     5    80    1
    85     6    81    1
    86     6    82    1
    87     7    83    1
    88     7    84    1
    89    11    85    1
    90    12    86    1
    91    21    87    1
    92    21    88    1
    93    22    89    1
    94    22    90    1
    95    23    91    1
    96    23    92    1
    97    29    93    1
    98    29    94    1
    99    32    95    1
   100    32    96    1
   101    32    97    1
   102    33    98    1
   103    33    99    1
   104    34   100    1
   105    34   101    1
   106    35   102    1
   107    35   103    1
   108    36   104    1
   109    36   105    1
   110    39   106    1
   111    43   107    1
   112    44   108    1
   113    45   109    1
   114    45   110    1
   115    45   111    1
   116    46   112    1
   117    46   113    1
   118    46   114    1
   119    50   115    1
   120    50   116    1
   121    51   117    1
   122    52   118    1
   123    52   119    1
   124    53   120    1
   125    56   121    1
   126    57   122    1
   127    58   123    1
   128    58   124    1
   129    59   125    1
   130    61   126    1
   131    62   127    1
   132    64   128    1
   133    65   129    1
   134    69   130    1
   135    71   131    1
   136    71   132    1
   137    71   133    1
   138    72   134    1
   139     2    76    1
   140     2     1    1
   141    20    32    1
   142    20    18    1
