@<TRIPOS>MOLECULE
*****
 134 142 0 0 0
SMALL
GASTEIGER

@<TRIPOS>ATOM
      1 C          13.9884    4.8235    4.8780 C.3     1  UNL1       -0.0452
      2 C          13.1563    4.1755    3.6862 C.3     1  UNL1        0.0361
      3 C          12.8372    5.1864    2.5103 C.3     1  UNL1        0.0173
      4 N          13.9118    5.8861    1.7186 N.3     1  UNL1       -0.3005
      5 C          14.2915    5.0863    0.5477 C.3     1  UNL1        0.0004
      6 C          14.2770    3.5063    0.6560 C.3     1  UNL1       -0.0243
      7 C          14.6173    2.7259    1.9676 C.3     1  UNL1        0.0164
      8 N          13.6966    2.9142    3.0731 N.pl3   1  UNL1       -0.2956
      9 C          13.3507    1.6991    3.5448 C.ar    1  UNL1        0.2187
     10 N          14.2843    0.9030    4.0999 N.ar    1  UNL1       -0.2227
     11 C          13.9112   -0.3457    4.3917 C.ar    1  UNL1        0.0333
     12 C          12.6709   -0.8211    4.0802 C.ar    1  UNL1       -0.0142
     13 C          11.8628    0.0511    3.3898 C.ar    1  UNL1        0.1162
     14 N          12.1655    1.3122    3.1293 N.ar    1  UNL1       -0.2111
     15 C          10.5343   -0.3145    3.0204 C.ar    1  UNL1        0.2206
     16 N          10.0528   -0.3386    1.7685 N.ar    1  UNL1       -0.0544
     17 O           8.7246   -0.7153    1.9626 O.2     1  UNL1       -0.3367
     18 C           8.5589   -0.8491    3.3192 C.ar    1  UNL1        0.2380
     19 N           9.6507   -0.6489    4.0016 N.ar    1  UNL1       -0.1893
     20 C           7.2112   -1.2638    3.8245 C.3     1  UNL1        0.0736
     21 C           6.9252   -2.6711    3.1390 C.3     1  UNL1       -0.0347
     22 C           7.7919   -3.7785    3.7629 C.3     1  UNL1       -0.0473
     23 C           7.3585   -3.9963    5.1931 C.3     1  UNL1       -0.0210
     24 C           7.2821   -2.7130    5.9277 C.ar    1  UNL1       -0.0030
     25 C           7.1910   -1.4328    5.4063 C.ar    1  UNL1       -0.0031
     26 C           7.1050   -0.4769    6.5491 C.ar    1  UNL1        0.0840
     27 C           7.1323   -1.1380    7.7894 C.ar    1  UNL1        0.0810
     28 S           7.2589   -2.8207    7.5990 S.2     1  UNL1       -0.0774
     29 N           7.0789   -0.7925    9.0951 N.pl3   1  UNL1       -0.3516
     30 C           6.9925    0.9439    6.4439 C.1     1  UNL1        0.1019
     31 N           6.8739    2.1218    6.3452 N.1     1  UNL1       -0.1908
     32 C           6.2075   -0.2144    3.3347 C.3     1  UNL1       -0.0469
     33 C          15.1233    6.2765    2.4848 C.3     1  UNL1       -0.0009
     34 C          15.9121    5.0096    2.8006 C.3     1  UNL1       -0.0371
     35 C          16.8353    4.3271    1.8305 C.3     1  UNL1       -0.0174
     36 C          17.8959    5.2611    1.5049 C.3     1  UNL1        0.0913
     37 O          18.7453    5.3575    2.6491 O.3     1  UNL1       -0.4743
     38 C          18.2033    5.8496    3.8117 C.ar    1  UNL1        0.2541
     39 C          18.9242    6.6882    4.5640 C.ar    1  UNL1        0.0895
     40 N          18.1377    7.0790    5.6281 N.ar    1  UNL1       -0.2358
     41 N          17.0797    6.2801    5.6565 N.ar    1  UNL1       -0.0614
     42 N          17.3599    5.3548    4.7658 N.ar    1  UNL1       -0.0917
     43 C          18.2772    7.9807    6.7769 C.3     1  UNL1        0.1326
     44 C          19.4627    7.6117    7.7086 C.3     1  UNL1       -0.0157
     45 C          20.7565    7.7065    6.9468 C.3     1  UNL1       -0.0603
     46 C          19.5936    8.5400    8.9218 C.3     1  UNL1       -0.0603
     47 C          18.2033    9.4797    6.4142 C.2     1  UNL1        0.2412
     48 O          17.4429   10.2270    7.0364 O.2     1  UNL1       -0.2732
     49 N          19.0999   10.0103    5.5001 N.am    1  UNL1       -0.2856
     50 C          19.6304    9.3156    4.3718 C.3     1  UNL1        0.0416
     51 C          20.9550    9.8906    3.9659 C.3     1  UNL1        0.0731
     52 C          20.8342   11.2845    4.5219 C.3     1  UNL1        0.0018
     53 C          19.9180   11.1871    5.7589 C.3     1  UNL1        0.1047
     54 C          19.0169   12.4065    5.9458 C.2     1  UNL1        0.2342
     55 O          19.1995   13.1638    6.9008 O.2     1  UNL1       -0.2738
     56 N          18.0564   12.7063    5.0128 N.am    1  UNL1       -0.3047
     57 CA         17.6953   11.9852    3.7896 C.3     1  UNL1        0.0714
     58 C          16.3038   11.3238    3.8632 C.3     1  UNL1        0.0667
     59 O          15.2553   12.2738    4.0021 O.3     1  UNL1       -0.3928
     60 C          17.9591   12.8222    2.5584 C.ar    1  UNL1       -0.0250
     61 C          16.9868   13.6782    2.0520 C.ar    1  UNL1       -0.0561
     62 C          17.2091   14.3956    0.8844 C.ar    1  UNL1       -0.0532
     63 C          18.4740   14.4302    0.3099 C.ar    1  UNL1       -0.0095
     64 C          19.4487   13.5545    0.7798 C.ar    1  UNL1       -0.0532
     65 C          19.1724   12.7327    1.8570 C.ar    1  UNL1       -0.0561
     66 C          18.7475   15.2966   -0.8206 C.ar    1  UNL1        0.0417
     67 C          18.6635   16.6765   -1.0136 C.ar    1  UNL1        0.0531
     68 N          19.0271   17.0697   -2.3073 N.ar    1  UNL1       -0.2520
     69 C          19.3539   16.0184   -3.0270 C.ar    1  UNL1        0.0655
     70 S          19.2653   14.5084   -2.2599 S.2     1  UNL1       -0.0752
     71 C          18.2605   17.7574   -0.0385 C.3     1  UNL1       -0.0212
     72 O          22.0373    9.1828    4.5729 O.3     1  UNL1       -0.3902
     73 H          14.5574    5.6883    4.5764 H       1  UNL1        0.0248
     74 H          14.7511    4.1712    5.3199 H       1  UNL1        0.0248
     75 H          13.4072    5.3515    5.6399 H       1  UNL1        0.0248
     76 H          12.2143    3.9080    4.1759 H       1  UNL1        0.0510
     77 H          12.2266    4.6269    1.7847 H       1  UNL1        0.0445
     78 H          12.1564    5.9495    2.8950 H       1  UNL1        0.0445
     79 H          13.6391    5.3713   -0.2857 H       1  UNL1        0.0427
     80 H          15.2512    5.4841    0.1726 H       1  UNL1        0.0427
     81 H          13.3010    3.1547    0.3205 H       1  UNL1        0.0293
     82 H          14.9799    3.1536   -0.1182 H       1  UNL1        0.0293
     83 H          14.9593    1.7115    1.6923 H       1  UNL1        0.0465
     84 H          15.5405    2.8586    2.4947 H       1  UNL1        0.0465
     85 H          14.6484   -0.9567    4.9006 H       1  UNL1        0.0831
     86 H          12.3359   -1.8050    4.3623 H       1  UNL1        0.0655
     87 H           7.1320   -2.6591    2.0592 H       1  UNL1        0.0278
     88 H           5.8670   -2.9427    3.2442 H       1  UNL1        0.0278
     89 H           7.6933   -4.7261    3.2243 H       1  UNL1        0.0269
     90 H           8.8549   -3.5048    3.7331 H       1  UNL1        0.0269
     91 H           6.3633   -4.4548    5.2131 H       1  UNL1        0.0318
     92 H           8.0632   -4.6700    5.6898 H       1  UNL1        0.0318
     93 H           7.0202    0.1243    9.5179 H       1  UNL1        0.1428
     94 H           7.1447   -1.5603    9.7687 H       1  UNL1        0.1428
     95 H           6.0193   -0.3014    2.2554 H       1  UNL1        0.0243
     96 H           5.2535   -0.2959    3.8578 H       1  UNL1        0.0243
     97 H           6.6036    0.7965    3.4964 H       1  UNL1        0.0243
     98 H          15.7714    6.9946    1.9788 H       1  UNL1        0.0427
     99 H          14.7936    6.9055    3.3229 H       1  UNL1        0.0427
    100 H          16.1832    4.5721    3.7390 H       1  UNL1        0.0279
    101 H          15.0836    4.4346    3.0012 H       1  UNL1        0.0279
    102 H          17.2695    3.3977    2.2403 H       1  UNL1        0.0298
    103 H          16.3776    4.0468    0.9059 H       1  UNL1        0.0298
    104 H          18.3720    4.7701    0.6413 H       1  UNL1        0.0697
    105 H          17.4603    6.1950    1.1336 H       1  UNL1        0.0697
    106 H          19.9375    6.8943    4.2791 H       1  UNL1        0.0881
    107 H          17.3731    7.8108    7.3939 H       1  UNL1        0.0644
    108 H          19.3457    6.5798    8.0622 H       1  UNL1        0.0321
    109 H          20.8276    8.7455    6.6629 H       1  UNL1        0.0233
    110 H          21.6614    7.4787    7.4950 H       1  UNL1        0.0233
    111 H          20.7602    7.0555    6.0797 H       1  UNL1        0.0233
    112 H          18.7586    8.4235    9.6153 H       1  UNL1        0.0233
    113 H          20.5229    8.3194    9.4601 H       1  UNL1        0.0233
    114 H          19.6497    9.5938    8.6250 H       1  UNL1        0.0233
    115 H          18.8705    9.1920    3.5914 H       1  UNL1        0.0490
    116 H          19.9294    8.4328    4.8227 H       1  UNL1        0.0490
    117 H          21.1011    9.7782    2.8893 H       1  UNL1        0.0610
    118 H          21.7933   11.7730    4.6683 H       1  UNL1        0.0313
    119 H          20.3080   11.8774    3.8104 H       1  UNL1        0.0313
    120 H          20.5277   11.0115    6.6514 H       1  UNL1        0.0597
    121 H          17.5291   13.5343    5.2509 H       1  UNL1        0.1494
    122 HA         18.3504   11.1446    3.6619 H       1  UNL1        0.0571
    123 H1         16.1326   10.7321    2.9559 H       1  UNL1        0.0579
    124 H2         16.2319   10.6454    4.7168 H       1  UNL1        0.0579
    125 H          15.5156   12.8619    4.7311 H       1  UNL1        0.2095
    126 H          16.0229   13.7880    2.5332 H       1  UNL1        0.0621
    127 H          16.3719   14.9031    0.4173 H       1  UNL1        0.0624
    128 H          20.4204   13.4549    0.3001 H       1  UNL1        0.0624
    129 H          19.9582   12.0291    2.0873 H       1  UNL1        0.0621
    130 H          19.6672   16.0539   -4.0595 H       1  UNL1        0.0907
    131 H          19.0643   18.4908    0.1123 H       1  UNL1        0.0293
    132 H          17.3878   18.3202   -0.3958 H       1  UNL1        0.0293
    133 H          18.0038   17.3589    0.9482 H       1  UNL1        0.0293
    134 H          22.0455    9.3514    5.5284 H       1  UNL1        0.2098
@<TRIPOS>BOND
     1     2     3    1
     2     3     4    1
     3     4     5    1
     4     5     6    1
     5     6     7    1
     6     7     8    1
     7     2     8    1
     8     8     9    1
     9     9    10   ar
    10    10    11   ar
    11    11    12   ar
    12    12    13   ar
    13    13    14   ar
    14     9    14   ar
    15    13    15    1
    16    15    16   ar
    17    16    17   ar
    18    17    18   ar
    19    18    19   ar
    20    15    19   ar
    21    20    21    1
    22    21    22    1
    23    22    23    1
    24    23    24    1
    25    24    25   ar
    26    20    25    1
    27    25    26   ar
    28    26    27   ar
    29    27    28   ar
    30    24    28   ar
    31    27    29    1
    32    26    30    1
    33    30    31    3
    34     4    33    1
    35    33    34    1
    36    34    35    1
    37    35    36    1
    38    36    37    1
    39    37    38    1
    40    38    39   ar
    41    39    40   ar
    42    40    41   ar
    43    41    42   ar
    44    38    42   ar
    45    40    43    1
    46    43    44    1
    47    44    45    1
    48    44    46    1
    49    43    47    1
    50    47    48    2
    51    47    49   am
    52    49    50    1
    53    50    51    1
    54    51    52    1
    55    52    53    1
    56    49    53    1
    57    53    54    1
    58    54    55    2
    59    54    56   am
    60    56    57    1
    61    57    58    1
    62    58    59    1
    63    57    60    1
    64    60    61   ar
    65    61    62   ar
    66    62    63   ar
    67    63    64   ar
    68    64    65   ar
    69    60    65   ar
    70    63    66    1
    71    66    67   ar
    72    67    68   ar
    73    68    69   ar
    74    69    70   ar
    75    66    70   ar
    76    67    71    1
    77    51    72    1
    78     1    73    1
    79     1    74    1
    80     1    75    1
    81     3    77    1
    82     3    78    1
    83     5    79    1
    84     5    80    1
    85     6    81    1
    86     6    82    1
    87     7    83    1
    88     7    84    1
    89    11    85    1
    90    12    86    1
    91    21    87    1
    92    21    88    1
    93    22    89    1
    94    22    90    1
    95    23    91    1
    96    23    92    1
    97    29    93    1
    98    29    94    1
    99    32    95    1
   100    32    96    1
   101    32    97    1
   102    33    98    1
   103    33    99    1
   104    34   100    1
   105    34   101    1
   106    35   102    1
   107    35   103    1
   108    36   104    1
   109    36   105    1
   110    39   106    1
   111    43   107    1
   112    44   108    1
   113    45   109    1
   114    45   110    1
   115    45   111    1
   116    46   112    1
   117    46   113    1
   118    46   114    1
   119    50   115    1
   120    50   116    1
   121    51   117    1
   122    52   118    1
   123    52   119    1
   124    53   120    1
   125    56   121    1
   126    57   122    1
   127    58   123    1
   128    58   124    1
   129    59   125    1
   130    61   126    1
   131    62   127    1
   132    64   128    1
   133    65   129    1
   134    69   130    1
   135    71   131    1
   136    71   132    1
   137    71   133    1
   138    72   134    1
   139     2    76    1
   140     2     1    1
   141    20    32    1
   142    20    18    1
