@<TRIPOS>MOLECULE
*****
 134 142 0 0 0
SMALL
GASTEIGER

@<TRIPOS>ATOM
      1 C          16.2870    0.7633   -1.8450 C.3     1  UNL1       -0.0452
      2 C          15.0784    0.1189   -1.0293 C.3     1  UNL1        0.0361
      3 C          14.9242   -1.4346   -1.2633 C.3     1  UNL1        0.0173
      4 N          16.0097   -2.4173   -0.9183 N.3     1  UNL1       -0.3005
      5 C          15.8502   -2.9000    0.4573 C.3     1  UNL1        0.0004
      6 C          15.2932   -1.9106    1.5587 C.3     1  UNL1       -0.0243
      7 C          15.5758   -0.3750    1.5574 C.3     1  UNL1        0.0164
      8 N          15.0049    0.3724    0.4519 N.pl3   1  UNL1       -0.2956
      9 C          14.3659    1.4497    0.9581 C.ar    1  UNL1        0.2187
     10 N          15.0646    2.3788    1.6396 N.ar    1  UNL1       -0.2227
     11 C          14.3577    3.3067    2.2898 C.ar    1  UNL1        0.0333
     12 C          12.9922    3.2843    2.3244 C.ar    1  UNL1       -0.0142
     13 C          12.3990    2.2143    1.6931 C.ar    1  UNL1        0.1162
     14 N          13.0577    1.3021    0.9924 N.ar    1  UNL1       -0.2111
     15 C          10.9730    2.0724    1.6539 C.ar    1  UNL1        0.2206
     16 N          10.2824    1.0288    2.1402 N.ar    1  UNL1       -0.0544
     17 O           8.9596    1.3667    1.8434 O.2     1  UNL1       -0.3367
     18 C           9.0084    2.5713    1.1887 C.ar    1  UNL1        0.2380
     19 N          10.2180    3.0535    1.0799 N.ar    1  UNL1       -0.1893
     20 C           7.7135    3.2205    0.7883 C.3     1  UNL1        0.0736
     21 C           6.9058    3.4775    2.1337 C.3     1  UNL1       -0.0347
     22 C           7.4890    4.6452    2.9360 C.3     1  UNL1       -0.0473
     23 C           7.3017    5.9227    2.1514 C.3     1  UNL1       -0.0210
     24 C           7.7757    5.7699    0.7571 C.ar    1  UNL1       -0.0030
     25 C           7.9701    4.5987    0.0452 C.ar    1  UNL1       -0.0031
     26 C           8.4399    4.9609   -1.3229 C.ar    1  UNL1        0.0840
     27 C           8.5224    6.3531   -1.4949 C.ar    1  UNL1        0.0810
     28 S           8.0758    7.1866   -0.0836 S.2     1  UNL1       -0.0774
     29 N           8.8590    7.2080   -2.4858 N.pl3   1  UNL1       -0.3516
     30 C           8.7667    4.0388   -2.3662 C.1     1  UNL1        0.1019
     31 N           9.0117    3.2665   -3.2335 N.1     1  UNL1       -0.1908
     32 C           6.9000    2.2404   -0.0625 C.3     1  UNL1       -0.0469
     33 C          17.3976   -1.9448   -1.1430 C.3     1  UNL1       -0.0009
     34 C          17.7373   -0.9130   -0.0729 C.3     1  UNL1       -0.0371
     35 C          18.1547   -1.2691    1.3299 C.3     1  UNL1       -0.0174
     36 C          19.3929   -2.0252    1.2566 C.3     1  UNL1        0.0913
     37 O          20.4387   -1.1111    0.9040 O.3     1  UNL1       -0.4743
     38 C          20.3072   -0.4640   -0.2993 C.ar    1  UNL1        0.2541
     39 C          21.3297   -0.4205   -1.1635 C.ar    1  UNL1        0.0895
     40 N          20.8711    0.1837   -2.3191 N.ar    1  UNL1       -0.2358
     41 N          19.7041    0.7482   -2.0172 N.ar    1  UNL1       -0.0614
     42 N          19.6347    0.6575   -0.6976 N.ar    1  UNL1       -0.0917
     43 C          21.4359    0.5476   -3.6289 C.3     1  UNL1        0.1326
     44 C          22.6007    1.5770   -3.5396 C.3     1  UNL1       -0.0157
     45 C          23.7292    0.9767   -2.7501 C.3     1  UNL1       -0.0603
     46 C          23.1802    1.9771   -4.9047 C.3     1  UNL1       -0.0603
     47 C          21.7351   -0.6566   -4.5523 C.2     1  UNL1        0.2412
     48 O          21.3085   -0.6560   -5.7115 O.2     1  UNL1       -0.2732
     49 N          22.6053   -1.6556   -4.1328 N.am    1  UNL1       -0.2856
     50 C          22.7534   -2.1163   -2.7892 C.3     1  UNL1        0.0416
     51 C          24.1256   -2.6932   -2.5757 C.3     1  UNL1        0.0731
     52 C          24.4719   -3.1353   -3.9749 C.3     1  UNL1        0.0018
     53 C          23.7616   -2.1085   -4.9034 C.3     1  UNL1        0.1047
     54 C          23.2958   -2.6846   -6.2257 C.2     1  UNL1        0.2342
     55 O          23.8037   -2.3225   -7.2868 O.2     1  UNL1       -0.2738
     56 N          22.3315   -3.6486   -6.2230 N.am    1  UNL1       -0.3047
     57 CA         21.6681   -4.2740   -5.0783 C.3     1  UNL1        0.0714
     58 C          20.1603   -4.0183   -5.0525 C.3     1  UNL1        0.0667
     59 O          19.5231   -4.6395   -6.1593 O.3     1  UNL1       -0.3928
     60 C          22.0421   -5.7258   -4.9480 C.ar    1  UNL1       -0.0250
     61 C          22.1307   -6.5146   -6.0942 C.ar    1  UNL1       -0.0561
     62 C          22.3751   -7.8736   -6.0008 C.ar    1  UNL1       -0.0532
     63 C          22.6955   -8.4453   -4.7735 C.ar    1  UNL1       -0.0095
     64 C          22.5731   -7.6658   -3.6080 C.ar    1  UNL1       -0.0532
     65 C          22.2491   -6.3120   -3.6904 C.ar    1  UNL1       -0.0561
     66 C          23.0769   -9.8532   -4.7177 C.ar    1  UNL1        0.0417
     67 C          24.1071  -10.6010   -5.3017 C.ar    1  UNL1        0.0531
     68 N          24.0621  -11.9608   -4.9640 N.ar    1  UNL1       -0.2520
     69 C          23.0314  -12.2013   -4.1838 C.ar    1  UNL1        0.0655
     70 S          22.0444  -10.8751   -3.7937 S.2     1  UNL1       -0.0752
     71 C          25.2366  -10.1515   -6.2007 C.3     1  UNL1       -0.0212
     72 O          25.0323   -1.7050   -2.0824 O.3     1  UNL1       -0.3902
     73 H          16.0725    0.9694   -2.8984 H       1  UNL1        0.0248
     74 H          17.1070    0.0905   -2.0470 H       1  UNL1        0.0248
     75 H          16.7977    1.5908   -1.3400 H       1  UNL1        0.0248
     76 H          14.2100    0.6195   -1.4680 H       1  UNL1        0.0510
     77 H          14.0280   -1.7414   -0.7025 H       1  UNL1        0.0445
     78 H          14.6505   -1.5928   -2.3091 H       1  UNL1        0.0445
     79 H          15.1952   -3.7788    0.4360 H       1  UNL1        0.0427
     80 H          16.7982   -3.3841    0.7509 H       1  UNL1        0.0427
     81 H          14.2110   -2.0342    1.6084 H       1  UNL1        0.0293
     82 H          15.6639   -2.3044    2.5205 H       1  UNL1        0.0293
     83 H          15.4842   -0.0019    2.5943 H       1  UNL1        0.0465
     84 H          16.5672    0.0275    1.5391 H       1  UNL1        0.0465
     85 H          14.9338    4.0821    2.7839 H       1  UNL1        0.0831
     86 H          12.4143    4.0554    2.8057 H       1  UNL1        0.0655
     87 H           6.8916    2.5918    2.7849 H       1  UNL1        0.0278
     88 H           5.8546    3.7010    1.9041 H       1  UNL1        0.0278
     89 H           6.9877    4.7594    3.9025 H       1  UNL1        0.0269
     90 H           8.5536    4.4781    3.1418 H       1  UNL1        0.0269
     91 H           6.2379    6.1840    2.1138 H       1  UNL1        0.0318
     92 H           7.8439    6.7340    2.6456 H       1  UNL1        0.0318
     93 H           9.1780    7.0130   -3.4254 H       1  UNL1        0.1428
     94 H           8.8176    8.2043   -2.2555 H       1  UNL1        0.1428
     95 H           6.0685    2.7476   -0.5589 H       1  UNL1        0.0243
     96 H           7.5291    1.7702   -0.8246 H       1  UNL1        0.0243
     97 H           6.4769    1.4284    0.5467 H       1  UNL1        0.0243
     98 H          18.1531   -2.7321   -1.1406 H       1  UNL1        0.0427
     99 H          17.4691   -1.6363   -2.1948 H       1  UNL1        0.0427
    100 H          18.0314    0.1073   -0.1871 H       1  UNL1        0.0279
    101 H          16.8209   -0.4442   -0.0810 H       1  UNL1        0.0279
    102 H          18.2963   -0.3820    1.9718 H       1  UNL1        0.0298
    103 H          17.4551   -1.8887    1.8502 H       1  UNL1        0.0298
    104 H          19.4780   -2.4233    2.2804 H       1  UNL1        0.0697
    105 H          19.2484   -2.8898    0.5974 H       1  UNL1        0.0697
    106 H          22.2995   -0.7352   -0.8320 H       1  UNL1        0.0881
    107 H          20.6280    1.0948   -4.1545 H       1  UNL1        0.0644
    108 H          22.2604    2.4823   -3.0220 H       1  UNL1        0.0321
    109 H          24.0309    0.1253   -3.3385 H       1  UNL1        0.0233
    110 H          24.6155    1.5848   -2.6212 H       1  UNL1        0.0233
    111 H          23.4123    0.6799   -1.7561 H       1  UNL1        0.0233
    112 H          22.4709    2.5609   -5.4946 H       1  UNL1        0.0233
    113 H          24.0866    2.5793   -4.7641 H       1  UNL1        0.0233
    114 H          23.4802    1.1034   -5.4949 H       1  UNL1        0.0233
    115 H          21.8984   -2.7327   -2.4882 H       1  UNL1        0.0490
    116 H          22.8293   -1.2154   -2.2864 H       1  UNL1        0.0490
    117 H          24.0988   -3.4664   -1.8069 H       1  UNL1        0.0610
    118 H          25.5453   -3.1911   -4.1417 H       1  UNL1        0.0313
    119 H          24.0722   -4.1401   -4.0939 H       1  UNL1        0.0313
    120 H          24.4122   -1.2448   -5.0819 H       1  UNL1        0.0597
    121 H          22.0904   -3.9508   -7.1544 H       1  UNL1        0.1494
    122 HA         22.0277   -3.8350   -4.1700 H       1  UNL1        0.0571
    123 H1         19.7275   -4.4082   -4.1241 H       1  UNL1        0.0579
    124 H2         19.9465   -2.9452   -5.0914 H       1  UNL1        0.0579
    125 H          19.9601   -4.2881   -6.9528 H       1  UNL1        0.2095
    126 H          21.9924   -6.0769   -7.0762 H       1  UNL1        0.0621
    127 H          22.2710   -8.4808   -6.8941 H       1  UNL1        0.0624
    128 H          22.6957   -8.1128   -2.6228 H       1  UNL1        0.0624
    129 H          22.1741   -5.7276   -2.7735 H       1  UNL1        0.0621
    130 H          22.7790  -13.1739   -3.7858 H       1  UNL1        0.0907
    131 H          26.2193  -10.3502   -5.7506 H       1  UNL1        0.0293
    132 H          25.2281  -10.6791   -7.1649 H       1  UNL1        0.0293
    133 H          25.1951   -9.0808   -6.4199 H       1  UNL1        0.0293
    134 H          25.2082   -1.0365   -2.7625 H       1  UNL1        0.2098
@<TRIPOS>BOND
     1     2     3    1
     2     3     4    1
     3     4     5    1
     4     5     6    1
     5     6     7    1
     6     7     8    1
     7     2     8    1
     8     8     9    1
     9     9    10   ar
    10    10    11   ar
    11    11    12   ar
    12    12    13   ar
    13    13    14   ar
    14     9    14   ar
    15    13    15    1
    16    15    16   ar
    17    16    17   ar
    18    17    18   ar
    19    18    19   ar
    20    15    19   ar
    21    20    21    1
    22    21    22    1
    23    22    23    1
    24    23    24    1
    25    24    25   ar
    26    20    25    1
    27    25    26   ar
    28    26    27   ar
    29    27    28   ar
    30    24    28   ar
    31    27    29    1
    32    26    30    1
    33    30    31    3
    34     4    33    1
    35    33    34    1
    36    34    35    1
    37    35    36    1
    38    36    37    1
    39    37    38    1
    40    38    39   ar
    41    39    40   ar
    42    40    41   ar
    43    41    42   ar
    44    38    42   ar
    45    40    43    1
    46    43    44    1
    47    44    45    1
    48    44    46    1
    49    43    47    1
    50    47    48    2
    51    47    49   am
    52    49    50    1
    53    50    51    1
    54    51    52    1
    55    52    53    1
    56    49    53    1
    57    53    54    1
    58    54    55    2
    59    54    56   am
    60    56    57    1
    61    57    58    1
    62    58    59    1
    63    57    60    1
    64    60    61   ar
    65    61    62   ar
    66    62    63   ar
    67    63    64   ar
    68    64    65   ar
    69    60    65   ar
    70    63    66    1
    71    66    67   ar
    72    67    68   ar
    73    68    69   ar
    74    69    70   ar
    75    66    70   ar
    76    67    71    1
    77    51    72    1
    78     1    73    1
    79     1    74    1
    80     1    75    1
    81     3    77    1
    82     3    78    1
    83     5    79    1
    84     5    80    1
    85     6    81    1
    86     6    82    1
    87     7    83    1
    88     7    84    1
    89    11    85    1
    90    12    86    1
    91    21    87    1
    92    21    88    1
    93    22    89    1
    94    22    90    1
    95    23    91    1
    96    23    92    1
    97    29    93    1
    98    29    94    1
    99    32    95    1
   100    32    96    1
   101    32    97    1
   102    33    98    1
   103    33    99    1
   104    34   100    1
   105    34   101    1
   106    35   102    1
   107    35   103    1
   108    36   104    1
   109    36   105    1
   110    39   106    1
   111    43   107    1
   112    44   108    1
   113    45   109    1
   114    45   110    1
   115    45   111    1
   116    46   112    1
   117    46   113    1
   118    46   114    1
   119    50   115    1
   120    50   116    1
   121    51   117    1
   122    52   118    1
   123    52   119    1
   124    53   120    1
   125    56   121    1
   126    57   122    1
   127    58   123    1
   128    58   124    1
   129    59   125    1
   130    61   126    1
   131    62   127    1
   132    64   128    1
   133    65   129    1
   134    69   130    1
   135    71   131    1
   136    71   132    1
   137    71   133    1
   138    72   134    1
   139    20    32    1
   140    20    18    1
   141     2    76    1
   142     2     1    1
