@<TRIPOS>MOLECULE
*****
 134 142 0 0 0
SMALL
GASTEIGER

@<TRIPOS>ATOM
      1 C         -12.4648    0.1774   -7.7113 C.3     1  UNL1       -0.0452
      2 C         -11.1599   -0.7466   -7.6028 C.3     1  UNL1        0.0361
      3 C         -11.4447   -2.1211   -6.9187 C.3     1  UNL1        0.0173
      4 N         -12.4135   -3.0816   -7.5254 N.3     1  UNL1       -0.3005
      5 C         -11.7235   -4.0452   -8.3794 C.3     1  UNL1        0.0004
      6 C         -10.4742   -3.5588   -9.2053 C.3     1  UNL1       -0.0243
      7 C         -10.3499   -2.1205   -9.7659 C.3     1  UNL1        0.0164
      8 N         -10.3541   -0.9777   -8.8537 N.pl3   1  UNL1       -0.2956
      9 C          -9.2618   -0.2409   -9.1546 C.ar    1  UNL1        0.2187
     10 N          -9.2133    0.3950  -10.3459 N.ar    1  UNL1       -0.2227
     11 C          -8.0300    0.8793  -10.7304 C.ar    1  UNL1        0.0333
     12 C          -6.9017    0.6739   -9.9954 C.ar    1  UNL1       -0.0142
     13 C          -7.0571   -0.1233   -8.8805 C.ar    1  UNL1        0.1162
     14 N          -8.2197   -0.5477   -8.4125 N.ar    1  UNL1       -0.2111
     15 C          -5.9528   -0.3450   -8.0057 C.ar    1  UNL1        0.2206
     16 N          -5.3431   -1.5000   -7.6942 N.ar    1  UNL1       -0.0544
     17 O          -4.3033   -1.0707   -6.8314 O.2     1  UNL1       -0.3367
     18 C          -4.4591    0.2854   -6.7195 C.ar    1  UNL1        0.2380
     19 N          -5.4328    0.7592   -7.4384 N.ar    1  UNL1       -0.1893
     20 C          -3.5476    1.1503   -5.9097 C.3     1  UNL1        0.0736
     21 C          -2.0868    1.0388   -6.5060 C.3     1  UNL1       -0.0347
     22 C          -1.9535    1.7337   -7.8647 C.3     1  UNL1       -0.0473
     23 C          -2.1765    3.2204   -7.6929 C.3     1  UNL1       -0.0210
     24 C          -3.4059    3.4993   -6.9188 C.ar    1  UNL1       -0.0030
     25 C          -4.0738    2.6530   -6.0529 C.ar    1  UNL1       -0.0031
     26 C          -5.2775    3.3662   -5.5427 C.ar    1  UNL1        0.0840
     27 C          -5.3503    4.6798   -6.0216 C.ar    1  UNL1        0.0810
     28 S          -4.0645    5.0306   -7.0773 S.2     1  UNL1       -0.0774
     29 N          -6.1707    5.7431   -5.8703 N.pl3   1  UNL1       -0.3516
     30 C          -6.2884    2.7999   -4.6459 C.1     1  UNL1        0.1019
     31 N          -7.0502    2.3659   -3.9290 N.1     1  UNL1       -0.1908
     32 C          -3.5042    0.6904   -4.4540 C.3     1  UNL1       -0.0469
     33 C         -13.5509   -2.4573   -8.2400 C.3     1  UNL1       -0.0009
     34 C         -13.0775   -1.8726   -9.5867 C.3     1  UNL1       -0.0371
     35 C         -12.8649   -2.7269  -10.7934 C.3     1  UNL1       -0.0174
     36 C         -14.1433   -3.3344  -11.1201 C.3     1  UNL1        0.0913
     37 O         -15.0141   -2.3183  -11.6143 O.3     1  UNL1       -0.4743
     38 C         -15.3820   -1.2963  -10.7708 C.ar    1  UNL1        0.2541
     39 C         -16.6065   -0.7725  -10.8664 C.ar    1  UNL1        0.0895
     40 N         -16.7382    0.1707   -9.8589 N.ar    1  UNL1       -0.2358
     41 N         -15.5372    0.4282   -9.3830 N.ar    1  UNL1       -0.0614
     42 N         -14.7413   -0.2675  -10.1462 N.ar    1  UNL1       -0.0917
     43 C         -17.8048    1.0249   -9.3188 C.3     1  UNL1        0.1326
     44 C         -18.4059    1.9612  -10.3940 C.3     1  UNL1       -0.0157
     45 C         -19.0406    1.1433  -11.4862 C.3     1  UNL1       -0.0603
     46 C         -19.4949    2.8823   -9.8423 C.3     1  UNL1       -0.0603
     47 C         -18.8597    0.2780   -8.4533 C.2     1  UNL1        0.2412
     48 O         -19.1844    0.7247   -7.3500 O.2     1  UNL1       -0.2732
     49 N         -19.5252   -0.8173   -8.9888 N.am    1  UNL1       -0.2856
     50 C         -18.9318   -1.6983   -9.9279 C.3     1  UNL1        0.0416
     51 C         -19.9520   -2.3576  -10.8041 C.3     1  UNL1        0.0731
     52 C         -21.1321   -2.3123   -9.8815 C.3     1  UNL1        0.0018
     53 C         -20.9681   -1.0166   -9.0316 C.3     1  UNL1        0.1047
     54 C         -21.5140   -1.1216   -7.6168 C.2     1  UNL1        0.2342
     55 O         -22.5006   -0.4673   -7.2782 O.2     1  UNL1       -0.2738
     56 N         -20.9495   -2.0092   -6.7443 N.am    1  UNL1       -0.3047
     57 CA        -19.8195   -2.9127   -6.9618 C.3     1  UNL1        0.0714
     58 C         -18.5940   -2.4983   -6.1214 C.3     1  UNL1        0.0667
     59 O         -18.8530   -2.6501   -4.7288 O.3     1  UNL1       -0.3928
     60 C         -20.2665   -4.3508   -6.8334 C.ar    1  UNL1       -0.0250
     61 C         -21.4241   -4.8291   -7.4748 C.ar    1  UNL1       -0.0561
     62 C         -21.9032   -6.1072   -7.2309 C.ar    1  UNL1       -0.0532
     63 C         -21.1659   -6.9775   -6.4409 C.ar    1  UNL1       -0.0095
     64 C         -20.0112   -6.5121   -5.8037 C.ar    1  UNL1       -0.0532
     65 C         -19.5471   -5.2305   -6.0314 C.ar    1  UNL1       -0.0561
     66 C         -21.6220   -8.3353   -6.2175 C.ar    1  UNL1        0.0417
     67 C         -21.7998   -9.4339   -7.0583 C.ar    1  UNL1        0.0531
     68 N         -22.2188  -10.5819   -6.3768 N.ar    1  UNL1       -0.2520
     69 C         -22.3621  -10.3215   -5.0950 C.ar    1  UNL1        0.0655
     70 S         -22.0493   -8.7279   -4.5990 S.2     1  UNL1       -0.0752
     71 C         -21.5740   -9.5429   -8.5460 C.3     1  UNL1       -0.0212
     72 O         -20.1832   -1.6316  -12.0064 O.3     1  UNL1       -0.3902
     73 H         -12.3528    1.0164   -8.4003 H       1  UNL1        0.0248
     74 H         -12.8864    0.4063   -6.7263 H       1  UNL1        0.0248
     75 H         -13.3801   -0.2279   -8.1217 H       1  UNL1        0.0248
     76 H         -10.5362   -0.1532   -6.9299 H       1  UNL1        0.0510
     77 H         -10.4780   -2.6363   -6.8108 H       1  UNL1        0.0445
     78 H         -11.7554   -1.9297   -5.8878 H       1  UNL1        0.0445
     79 H         -11.3983   -4.8881   -7.7584 H       1  UNL1        0.0427
     80 H         -12.4891   -4.5507   -8.9925 H       1  UNL1        0.0427
     81 H          -9.5713   -3.7689   -8.6337 H       1  UNL1        0.0293
     82 H         -10.4236   -4.2373  -10.0752 H       1  UNL1        0.0293
     83 H          -9.7191   -2.1007  -10.6768 H       1  UNL1        0.0465
     84 H         -11.1258   -1.8051  -10.4026 H       1  UNL1        0.0465
     85 H          -8.0166    1.4427  -11.6574 H       1  UNL1        0.0831
     86 H          -5.9544    1.1225  -10.2493 H       1  UNL1        0.0655
     87 H          -1.7600   -0.0047   -6.6177 H       1  UNL1        0.0278
     88 H          -1.3756    1.5094   -5.8119 H       1  UNL1        0.0278
     89 H          -0.9550    1.5881   -8.2902 H       1  UNL1        0.0269
     90 H          -2.6730    1.3179   -8.5807 H       1  UNL1        0.0269
     91 H          -1.3401    3.6624   -7.1407 H       1  UNL1        0.0318
     92 H          -2.2342    3.6921   -8.6783 H       1  UNL1        0.0318
     93 H          -7.0147    5.8319   -5.3202 H       1  UNL1        0.1428
     94 H          -5.9167    6.5862   -6.3905 H       1  UNL1        0.1428
     95 H          -4.4337    0.1976   -4.1510 H       1  UNL1        0.0243
     96 H          -2.6904   -0.0266   -4.2779 H       1  UNL1        0.0243
     97 H          -3.3320    1.5443   -3.7942 H       1  UNL1        0.0243
     98 H         -14.3838   -3.1434   -8.4030 H       1  UNL1        0.0427
     99 H         -14.0351   -1.7853   -7.5160 H       1  UNL1        0.0427
    100 H         -13.1460   -0.9089  -10.0714 H       1  UNL1        0.0279
    101 H         -12.2613   -1.3412   -9.2418 H       1  UNL1        0.0279
    102 H         -12.4746   -2.1354  -11.6417 H       1  UNL1        0.0298
    103 H         -12.1691   -3.5235  -10.6427 H       1  UNL1        0.0298
    104 H         -13.8475   -4.0737  -11.8800 H       1  UNL1        0.0697
    105 H         -14.5164   -3.9072  -10.2651 H       1  UNL1        0.0697
    106 H         -17.2850   -1.1567  -11.6062 H       1  UNL1        0.0881
    107 H         -17.2984    1.7002   -8.6004 H       1  UNL1        0.0644
    108 H         -17.6084    2.5711  -10.8373 H       1  UNL1        0.0321
    109 H         -19.8314    0.5946  -10.9932 H       1  UNL1        0.0233
    110 H         -19.5042    1.6904  -12.2959 H       1  UNL1        0.0233
    111 H         -18.3248    0.4784  -11.9566 H       1  UNL1        0.0233
    112 H         -19.0893    3.6181   -9.1456 H       1  UNL1        0.0233
    113 H         -19.9803    3.4146  -10.6679 H       1  UNL1        0.0233
    114 H         -20.2814    2.3169   -9.3292 H       1  UNL1        0.0233
    115 H         -18.1825   -2.3339   -9.4431 H       1  UNL1        0.0490
    116 H         -18.5671   -0.9823  -10.5761 H       1  UNL1        0.0490
    117 H         -19.5973   -3.3437  -11.1109 H       1  UNL1        0.0610
    118 H         -22.0885   -2.4049  -10.3889 H       1  UNL1        0.0313
    119 H         -20.9788   -3.1924   -9.2840 H       1  UNL1        0.0313
    120 H         -21.4266   -0.1687   -9.5539 H       1  UNL1        0.0597
    121 H         -21.3959   -2.0178   -5.8383 H       1  UNL1        0.1494
    122 HA        -19.4680   -2.8580   -7.9746 H       1  UNL1        0.0571
    123 H1        -17.7297   -3.1170   -6.3956 H       1  UNL1        0.0579
    124 H2        -18.3044   -1.4606   -6.2929 H       1  UNL1        0.0579
    125 H         -19.6798   -2.1706   -4.5510 H       1  UNL1        0.2095
    126 H         -22.0198   -4.2243   -8.1479 H       1  UNL1        0.0621
    127 H         -22.8842   -6.3819   -7.6085 H       1  UNL1        0.0624
    128 H         -19.4752   -7.1141   -5.0753 H       1  UNL1        0.0624
    129 H         -18.6327   -4.9302   -5.5279 H       1  UNL1        0.0621
    130 H         -22.6658  -11.0459   -4.3539 H       1  UNL1        0.0907
    131 H         -20.7985  -10.2819   -8.7869 H       1  UNL1        0.0293
    132 H         -22.4845   -9.8615   -9.0710 H       1  UNL1        0.0293
    133 H         -21.2628   -8.5933   -8.9929 H       1  UNL1        0.0293
    134 H         -20.6085   -0.7838  -11.8053 H       1  UNL1        0.2098
@<TRIPOS>BOND
     1     2     3    1
     2     3     4    1
     3     4     5    1
     4     5     6    1
     5     6     7    1
     6     7     8    1
     7     2     8    1
     8     8     9    1
     9     9    10   ar
    10    10    11   ar
    11    11    12   ar
    12    12    13   ar
    13    13    14   ar
    14     9    14   ar
    15    13    15    1
    16    15    16   ar
    17    16    17   ar
    18    17    18   ar
    19    18    19   ar
    20    15    19   ar
    21    20    21    1
    22    21    22    1
    23    22    23    1
    24    23    24    1
    25    24    25   ar
    26    20    25    1
    27    25    26   ar
    28    26    27   ar
    29    27    28   ar
    30    24    28   ar
    31    27    29    1
    32    26    30    1
    33    30    31    3
    34     4    33    1
    35    33    34    1
    36    34    35    1
    37    35    36    1
    38    36    37    1
    39    37    38    1
    40    38    39   ar
    41    39    40   ar
    42    40    41   ar
    43    41    42   ar
    44    38    42   ar
    45    40    43    1
    46    43    44    1
    47    44    45    1
    48    44    46    1
    49    43    47    1
    50    47    48    2
    51    47    49   am
    52    49    50    1
    53    50    51    1
    54    51    52    1
    55    52    53    1
    56    49    53    1
    57    53    54    1
    58    54    55    2
    59    54    56   am
    60    56    57    1
    61    57    58    1
    62    58    59    1
    63    57    60    1
    64    60    61   ar
    65    61    62   ar
    66    62    63   ar
    67    63    64   ar
    68    64    65   ar
    69    60    65   ar
    70    63    66    1
    71    66    67   ar
    72    67    68   ar
    73    68    69   ar
    74    69    70   ar
    75    66    70   ar
    76    67    71    1
    77    51    72    1
    78     1    73    1
    79     1    74    1
    80     1    75    1
    81     3    77    1
    82     3    78    1
    83     5    79    1
    84     5    80    1
    85     6    81    1
    86     6    82    1
    87     7    83    1
    88     7    84    1
    89    11    85    1
    90    12    86    1
    91    21    87    1
    92    21    88    1
    93    22    89    1
    94    22    90    1
    95    23    91    1
    96    23    92    1
    97    29    93    1
    98    29    94    1
    99    32    95    1
   100    32    96    1
   101    32    97    1
   102    33    98    1
   103    33    99    1
   104    34   100    1
   105    34   101    1
   106    35   102    1
   107    35   103    1
   108    36   104    1
   109    36   105    1
   110    39   106    1
   111    43   107    1
   112    44   108    1
   113    45   109    1
   114    45   110    1
   115    45   111    1
   116    46   112    1
   117    46   113    1
   118    46   114    1
   119    50   115    1
   120    50   116    1
   121    51   117    1
   122    52   118    1
   123    52   119    1
   124    53   120    1
   125    56   121    1
   126    57   122    1
   127    58   123    1
   128    58   124    1
   129    59   125    1
   130    61   126    1
   131    62   127    1
   132    64   128    1
   133    65   129    1
   134    69   130    1
   135    71   131    1
   136    71   132    1
   137    71   133    1
   138    72   134    1
   139     2    76    1
   140     2     1    1
   141    20    32    1
   142    20    18    1
