@<TRIPOS>MOLECULE
*****
 134 142 0 0 0
SMALL
GASTEIGER

@<TRIPOS>ATOM
      1 C         -12.3131    2.2666   -8.4054 C.3     1  UNL1       -0.0452
      2 C         -11.2787    1.1011   -8.0459 C.3     1  UNL1        0.0361
      3 C         -11.9480   -0.0723   -7.2597 C.3     1  UNL1        0.0173
      4 N         -13.0492   -0.8753   -7.8733 N.3     1  UNL1       -0.3005
      5 C         -12.5188   -2.0688   -8.5269 C.3     1  UNL1        0.0004
      6 C         -11.1217   -1.9735   -9.2414 C.3     1  UNL1       -0.0243
      7 C         -10.6206   -0.6855   -9.9449 C.3     1  UNL1        0.0164
      8 N         -10.4424    0.5418   -9.1664 N.pl3   1  UNL1       -0.2956
      9 C          -9.1784    0.9611   -9.4019 C.ar    1  UNL1        0.2187
     10 N          -8.8534    1.3713  -10.6483 N.ar    1  UNL1       -0.2227
     11 C          -7.5545    1.4790  -10.9381 C.ar    1  UNL1        0.0333
     12 C          -6.5920    1.1191  -10.0437 C.ar    1  UNL1       -0.0142
     13 C          -7.0548    0.5809   -8.8596 C.ar    1  UNL1        0.1162
     14 N          -8.3258    0.5387   -8.4942 N.ar    1  UNL1       -0.2111
     15 C          -6.1388    0.2449   -7.8198 C.ar    1  UNL1        0.2206
     16 N          -5.8741   -0.9575   -7.2840 N.ar    1  UNL1       -0.0544
     17 O          -4.8223   -0.6613   -6.3802 O.2     1  UNL1       -0.3367
     18 C          -4.6345    0.6922   -6.4704 C.ar    1  UNL1        0.2380
     19 N          -5.4160    1.2700   -7.3340 N.ar    1  UNL1       -0.1893
     20 C          -3.5085    1.4093   -5.7968 C.3     1  UNL1        0.0736
     21 C          -2.1577    0.8739   -6.4285 C.3     1  UNL1       -0.0347
     22 C          -1.9676    1.3269   -7.8808 C.3     1  UNL1       -0.0473
     23 C          -1.8292    2.8332   -7.9227 C.3     1  UNL1       -0.0210
     24 C          -2.8976    3.4994   -7.1441 C.ar    1  UNL1       -0.0030
     25 C          -3.6753    2.9604   -6.1345 C.ar    1  UNL1       -0.0031
     26 C          -4.6463    3.9968   -5.6848 C.ar    1  UNL1        0.0840
     27 C          -4.4483    5.2157   -6.3519 C.ar    1  UNL1        0.0810
     28 S          -3.2000    5.1083   -7.5007 S.2     1  UNL1       -0.0774
     29 N          -4.9942    6.4503   -6.3189 N.pl3   1  UNL1       -0.3516
     30 C          -5.6634    3.8167   -4.7051 C.1     1  UNL1        0.1019
     31 N          -6.4944    3.6658   -3.8591 N.1     1  UNL1       -0.1908
     32 C          -3.4710    1.1362   -4.2960 C.3     1  UNL1       -0.0469
     33 C         -13.9459   -0.1288   -8.7862 C.3     1  UNL1       -0.0009
     34 C         -13.2238    0.1551  -10.1160 C.3     1  UNL1       -0.0371
     35 C         -13.0999   -0.8737  -11.1956 C.3     1  UNL1       -0.0174
     36 C         -14.4479   -1.2179  -11.6212 C.3     1  UNL1        0.0913
     37 O         -14.9999   -0.1092  -12.3299 O.3     1  UNL1       -0.4743
     38 C         -15.1970    1.0672  -11.6500 C.ar    1  UNL1        0.2541
     39 C         -16.2618    1.8227  -11.9365 C.ar    1  UNL1        0.0895
     40 N         -16.2550    2.8937  -11.0636 N.ar    1  UNL1       -0.2358
     41 N         -15.0685    2.9451  -10.4885 N.ar    1  UNL1       -0.0614
     42 N         -14.3865    2.0097  -11.0916 N.ar    1  UNL1       -0.0917
     43 C         -17.1316    4.0268  -10.7565 C.3     1  UNL1        0.1326
     44 C         -17.3959    4.9253  -11.9879 C.3     1  UNL1       -0.0157
     45 C         -18.1015    4.1370  -13.0602 C.3     1  UNL1       -0.0603
     46 C         -18.2800    6.1320  -11.6669 C.3     1  UNL1       -0.0603
     47 C         -18.3988    3.6559   -9.9490 C.2     1  UNL1        0.2412
     48 O         -18.7016    4.3062   -8.9448 O.2     1  UNL1       -0.2732
     49 N         -19.2604    2.6853  -10.4384 N.am    1  UNL1       -0.2856
     50 C         -18.8445    1.5660  -11.2082 C.3     1  UNL1        0.0416
     51 C         -19.9607    1.0490  -12.0624 C.3     1  UNL1        0.0731
     52 C         -21.1543    1.5296  -11.2818 C.3     1  UNL1        0.0018
     53 C         -20.7022    2.8365  -10.5810 C.3     1  UNL1        0.1047
     54 C         -21.3314    3.0369   -9.2121 C.2     1  UNL1        0.2342
     55 O         -22.1454    3.9436   -9.0313 O.2     1  UNL1       -0.2738
     56 N         -21.0472    2.1573   -8.2021 N.am    1  UNL1       -0.3047
     57 CA        -20.1522    0.9905   -8.2074 C.3     1  UNL1        0.0714
     58 C         -18.9073    1.1994   -7.3169 C.3     1  UNL1        0.0667
     59 O         -19.2236    1.4049   -5.9446 O.3     1  UNL1       -0.3928
     60 C         -20.9482   -0.2668   -7.9519 C.ar    1  UNL1       -0.0250
     61 C         -21.4411   -1.0943   -8.9818 C.ar    1  UNL1       -0.0561
     62 C         -22.3707   -2.0932   -8.7110 C.ar    1  UNL1       -0.0532
     63 C         -22.6506   -2.4166   -7.3902 C.ar    1  UNL1       -0.0095
     64 C         -22.1355   -1.6234   -6.3636 C.ar    1  UNL1       -0.0532
     65 C         -21.3053   -0.5610   -6.6453 C.ar    1  UNL1       -0.0561
     66 C         -23.4731   -3.5578   -7.0473 C.ar    1  UNL1        0.0417
     67 C         -23.2838   -4.9304   -7.1885 C.ar    1  UNL1        0.0531
     68 N         -24.3012   -5.6877   -6.6015 N.ar    1  UNL1       -0.2520
     69 C         -25.2073   -4.8937   -6.0723 C.ar    1  UNL1        0.0655
     70 S         -24.9597   -3.2219   -6.2552 S.2     1  UNL1       -0.0752
     71 C         -22.1383   -5.6639   -7.8340 C.3     1  UNL1       -0.0212
     72 O         -19.9219    1.6311  -13.3664 O.3     1  UNL1       -0.3902
     73 H         -11.9594    2.9494   -9.1801 H       1  UNL1        0.0248
     74 H         -12.7206    2.7432   -7.5069 H       1  UNL1        0.0248
     75 H         -13.2685    2.0090   -8.8426 H       1  UNL1        0.0248
     76 H         -10.5939    1.6198   -7.3693 H       1  UNL1        0.0510
     77 H         -11.1441   -0.7658   -6.9699 H       1  UNL1        0.0445
     78 H         -12.3105    0.3225   -6.3061 H       1  UNL1        0.0445
     79 H         -12.4547   -2.8694   -7.7807 H       1  UNL1        0.0427
     80 H         -13.3141   -2.4770   -9.1734 H       1  UNL1        0.0427
     81 H         -10.3496   -2.2913   -8.5407 H       1  UNL1        0.0293
     82 H         -11.1401   -2.7626  -10.0129 H       1  UNL1        0.0293
     83 H          -9.8803   -0.9509  -10.7235 H       1  UNL1        0.0465
     84 H         -11.2118   -0.2925  -10.7316 H       1  UNL1        0.0465
     85 H          -7.3113    1.8644  -11.9228 H       1  UNL1        0.0831
     86 H          -5.5410    1.2704  -10.2336 H       1  UNL1        0.0655
     87 H          -2.0940   -0.2232   -6.3993 H       1  UNL1        0.0278
     88 H          -1.3081    1.2474   -5.8400 H       1  UNL1        0.0278
     89 H          -1.0646    0.8889   -8.3189 H       1  UNL1        0.0269
     90 H          -2.8118    1.0019   -8.5016 H       1  UNL1        0.0269
     91 H          -0.8730    3.1318   -7.4800 H       1  UNL1        0.0318
     92 H          -1.8520    3.1684   -8.9641 H       1  UNL1        0.0318
     93 H          -5.7547    6.8024   -5.7524 H       1  UNL1        0.1428
     94 H          -4.5990    7.1350   -6.9674 H       1  UNL1        0.1428
     95 H          -4.4649    0.9268   -3.8883 H       1  UNL1        0.0243
     96 H          -2.8381    0.2703   -4.0563 H       1  UNL1        0.0243
     97 H          -3.0509    1.9959   -3.7674 H       1  UNL1        0.0243
     98 H         -14.8888   -0.6443   -8.9772 H       1  UNL1        0.0427
     99 H         -14.3376    0.7219   -8.2102 H       1  UNL1        0.0427
    100 H         -13.0114    1.0472  -10.6853 H       1  UNL1        0.0279
    101 H         -12.3399    0.5111   -9.7196 H       1  UNL1        0.0279
    102 H         -12.5091   -0.4936  -12.0486 H       1  UNL1        0.0298
    103 H         -12.6205   -1.7791  -10.8858 H       1  UNL1        0.0298
    104 H         -14.2673   -2.0934  -12.2621 H       1  UNL1        0.0697
    105 H         -15.0332   -1.5771  -10.7686 H       1  UNL1        0.0697
    106 H         -16.9330    1.5123  -12.7146 H       1  UNL1        0.0881
    107 H         -16.5487    4.6609  -10.0592 H       1  UNL1        0.0644
    108 H         -16.4391    5.2806  -12.3919 H       1  UNL1        0.0321
    109 H         -19.0428    3.8409  -12.6179 H       1  UNL1        0.0233
    110 H         -18.3425    4.6725  -13.9693 H       1  UNL1        0.0233
    111 H         -17.5206    3.2761  -13.3729 H       1  UNL1        0.0233
    112 H         -17.7755    6.8415  -11.0079 H       1  UNL1        0.0233
    113 H         -18.5487    6.6500  -12.5942 H       1  UNL1        0.0233
    114 H         -19.2208    5.8295  -11.1930 H       1  UNL1        0.0233
    115 H         -18.3038    0.8440  -10.5856 H       1  UNL1        0.0490
    116 H         -18.2690    2.0583  -11.9156 H       1  UNL1        0.0490
    117 H         -19.8482   -0.0262  -12.2147 H       1  UNL1        0.0610
    118 H         -22.0494    1.6195  -11.8915 H       1  UNL1        0.0313
    119 H         -21.3680    0.7898  -10.5348 H       1  UNL1        0.0313
    120 H         -20.9016    3.6940  -11.2324 H       1  UNL1        0.0597
    121 H         -21.5387    2.3821   -7.3483 H       1  UNL1        0.1494
    122 HA        -19.7441    0.8376   -9.1872 H       1  UNL1        0.0571
    123 H1        -18.2500    0.3274   -7.4009 H       1  UNL1        0.0579
    124 H2        -18.3402    2.0762   -7.6362 H       1  UNL1        0.0579
    125 H         -19.9306    2.0722   -5.9193 H       1  UNL1        0.2095
    126 H         -21.1320   -0.9987  -10.0178 H       1  UNL1        0.0621
    127 H         -22.8843   -2.5933   -9.5291 H       1  UNL1        0.0624
    128 H         -22.3928   -1.7903   -5.3228 H       1  UNL1        0.0624
    129 H         -20.9375    0.0211   -5.8121 H       1  UNL1        0.0621
    130 H         -26.0837   -5.2388   -5.5440 H       1  UNL1        0.0907
    131 H         -21.6007   -6.2937   -7.1140 H       1  UNL1        0.0293
    132 H         -22.4904   -6.3251   -8.6362 H       1  UNL1        0.0293
    133 H         -21.4050   -4.9834   -8.2785 H       1  UNL1        0.0293
    134 H         -20.1092    2.5816  -13.3091 H       1  UNL1        0.2098
@<TRIPOS>BOND
     1     2     3    1
     2     3     4    1
     3     4     5    1
     4     5     6    1
     5     6     7    1
     6     7     8    1
     7     2     8    1
     8     8     9    1
     9     9    10   ar
    10    10    11   ar
    11    11    12   ar
    12    12    13   ar
    13    13    14   ar
    14     9    14   ar
    15    13    15    1
    16    15    16   ar
    17    16    17   ar
    18    17    18   ar
    19    18    19   ar
    20    15    19   ar
    21    20    21    1
    22    21    22    1
    23    22    23    1
    24    23    24    1
    25    24    25   ar
    26    20    25    1
    27    25    26   ar
    28    26    27   ar
    29    27    28   ar
    30    24    28   ar
    31    27    29    1
    32    26    30    1
    33    30    31    3
    34     4    33    1
    35    33    34    1
    36    34    35    1
    37    35    36    1
    38    36    37    1
    39    37    38    1
    40    38    39   ar
    41    39    40   ar
    42    40    41   ar
    43    41    42   ar
    44    38    42   ar
    45    40    43    1
    46    43    44    1
    47    44    45    1
    48    44    46    1
    49    43    47    1
    50    47    48    2
    51    47    49   am
    52    49    50    1
    53    50    51    1
    54    51    52    1
    55    52    53    1
    56    49    53    1
    57    53    54    1
    58    54    55    2
    59    54    56   am
    60    56    57    1
    61    57    58    1
    62    58    59    1
    63    57    60    1
    64    60    61   ar
    65    61    62   ar
    66    62    63   ar
    67    63    64   ar
    68    64    65   ar
    69    60    65   ar
    70    63    66    1
    71    66    67   ar
    72    67    68   ar
    73    68    69   ar
    74    69    70   ar
    75    66    70   ar
    76    67    71    1
    77    51    72    1
    78     1    73    1
    79     1    74    1
    80     1    75    1
    81     3    77    1
    82     3    78    1
    83     5    79    1
    84     5    80    1
    85     6    81    1
    86     6    82    1
    87     7    83    1
    88     7    84    1
    89    11    85    1
    90    12    86    1
    91    21    87    1
    92    21    88    1
    93    22    89    1
    94    22    90    1
    95    23    91    1
    96    23    92    1
    97    29    93    1
    98    29    94    1
    99    32    95    1
   100    32    96    1
   101    32    97    1
   102    33    98    1
   103    33    99    1
   104    34   100    1
   105    34   101    1
   106    35   102    1
   107    35   103    1
   108    36   104    1
   109    36   105    1
   110    39   106    1
   111    43   107    1
   112    44   108    1
   113    45   109    1
   114    45   110    1
   115    45   111    1
   116    46   112    1
   117    46   113    1
   118    46   114    1
   119    50   115    1
   120    50   116    1
   121    51   117    1
   122    52   118    1
   123    52   119    1
   124    53   120    1
   125    56   121    1
   126    57   122    1
   127    58   123    1
   128    58   124    1
   129    59   125    1
   130    61   126    1
   131    62   127    1
   132    64   128    1
   133    65   129    1
   134    69   130    1
   135    71   131    1
   136    71   132    1
   137    71   133    1
   138    72   134    1
   139     2    76    1
   140     2     1    1
   141    20    32    1
   142    20    18    1
