@<TRIPOS>MOLECULE
*****
 134 142 0 0 0
SMALL
GASTEIGER

@<TRIPOS>ATOM
      1 C          13.8781    4.8868    5.0937 C.3     1  UNL1       -0.0452
      2 C          13.0905    4.2117    3.8798 C.3     1  UNL1        0.0361
      3 C          12.8092    5.2061    2.6941 C.3     1  UNL1        0.0173
      4 N          13.9199    5.8812    1.9431 N.3     1  UNL1       -0.3005
      5 C          14.3124    5.0897    0.7752 C.3     1  UNL1        0.0004
      6 C          14.2665    3.5136    0.8716 C.3     1  UNL1       -0.0243
      7 C          14.5579    2.7315    2.1859 C.3     1  UNL1        0.0164
      8 N          13.6455    2.9392    3.2981 N.pl3   1  UNL1       -0.2956
      9 C          13.2742    1.7278    3.7625 C.ar    1  UNL1        0.2187
     10 N          14.1885    0.9240    4.3393 N.ar    1  UNL1       -0.2227
     11 C          13.8004   -0.3226    4.6218 C.ar    1  UNL1        0.0333
     12 C          12.5645   -0.7895    4.2812 C.ar    1  UNL1       -0.0142
     13 C          11.7788    0.0880    3.5716 C.ar    1  UNL1        0.1162
     14 N          12.0968    1.3476    3.3176 N.ar    1  UNL1       -0.2111
     15 C          10.4569   -0.2713    3.1704 C.ar    1  UNL1        0.2206
     16 N          10.0053   -0.2968    1.9074 N.ar    1  UNL1       -0.0544
     17 O           8.6714   -0.6702    2.0699 O.2     1  UNL1       -0.3367
     18 C           8.4725   -0.8008    3.4221 C.ar    1  UNL1        0.2380
     19 N           9.5486   -0.6026    4.1300 N.ar    1  UNL1       -0.1893
     20 C           7.1112   -1.2067    3.8986 C.3     1  UNL1        0.0736
     21 C           6.8272   -2.6152    3.2154 C.3     1  UNL1       -0.0347
     22 C           7.6726   -3.7263    3.8600 C.3     1  UNL1       -0.0473
     23 C           7.2135   -3.9319    5.2840 C.3     1  UNL1       -0.0210
     24 C           7.1346   -2.6441    6.0103 C.ar    1  UNL1       -0.0030
     25 C           7.0604   -1.3662    5.4807 C.ar    1  UNL1       -0.0031
     26 C           6.9680   -0.4030    6.6173 C.ar    1  UNL1        0.0840
     27 C           6.9725   -1.0578    7.8615 C.ar    1  UNL1        0.0810
     28 S           7.0875   -2.7426    7.6815 S.2     1  UNL1       -0.0774
     29 N           6.9048   -0.7056    9.1647 N.pl3   1  UNL1       -0.3516
     30 C           6.8722    1.0179    6.5029 C.1     1  UNL1        0.1019
     31 N           6.7674    2.1974    6.3957 N.1     1  UNL1       -0.1908
     32 C           6.1221   -0.1577    3.3800 C.3     1  UNL1       -0.0469
     33 C          15.1119    6.2408    2.7497 C.3     1  UNL1       -0.0009
     34 C          15.8886    4.9606    3.0863 C.3     1  UNL1       -0.0371
     35 C          16.8220    4.2928    2.1230 C.3     1  UNL1       -0.0174
     36 C          17.8822    5.2359    1.8206 C.3     1  UNL1        0.0913
     37 O          18.7054    5.3535    2.9811 O.3     1  UNL1       -0.4743
     38 C          18.1430    5.8626    4.1279 C.ar    1  UNL1        0.2541
     39 C          18.8656    6.6716    4.9091 C.ar    1  UNL1        0.0895
     40 N          18.0561    7.0815    5.9492 N.ar    1  UNL1       -0.2358
     41 N          16.9751    6.3204    5.9472 N.ar    1  UNL1       -0.0614
     42 N          17.2343    5.4116    5.0421 N.ar    1  UNL1       -0.0917
     43 C          18.1707    7.9834    7.0970 C.3     1  UNL1        0.1326
     44 C          19.3271    7.6047    8.0558 C.3     1  UNL1       -0.0157
     45 C          20.6372    7.6882    7.3229 C.3     1  UNL1       -0.0603
     46 C          19.4346    8.5351    9.2680 C.3     1  UNL1       -0.0603
     47 C          18.1120    9.4799    6.7238 C.2     1  UNL1        0.2412
     48 O          17.3390   10.2337    7.3223 O.2     1  UNL1       -0.2732
     49 N          19.0331   10.0011    5.8286 N.am    1  UNL1       -0.2856
     50 C          19.5843    9.2998    4.7140 C.3     1  UNL1        0.0416
     51 C          20.9271    9.8578    4.3448 C.3     1  UNL1        0.0731
     52 C          20.8095   11.2543    4.8960 C.3     1  UNL1        0.0018
     53 C          19.8590   11.1675    6.1085 C.3     1  UNL1        0.1047
     54 C          18.9675   12.3965    6.2730 C.2     1  UNL1        0.2342
     55 O          19.1319   13.1498    7.2342 O.2     1  UNL1       -0.2738
     56 N          18.0366   12.7076    5.3142 N.am    1  UNL1       -0.3047
     57 CA         17.7027   11.9906    4.0811 C.3     1  UNL1        0.0714
     58 C          16.3015   11.3484    4.1118 C.3     1  UNL1        0.0667
     59 O          15.2633   12.3137    4.2171 O.3     1  UNL1       -0.3928
     60 C          18.0135   12.8234    2.8588 C.ar    1  UNL1       -0.0250
     61 C          17.0796   13.7169    2.3451 C.ar    1  UNL1       -0.0561
     62 C          17.3445   14.4330    1.1858 C.ar    1  UNL1       -0.0532
     63 C          18.6190   14.4280    0.6314 C.ar    1  UNL1       -0.0095
     64 C          19.5552   13.5141    1.1096 C.ar    1  UNL1       -0.0532
     65 C          19.2333   12.6933    2.1756 C.ar    1  UNL1       -0.0561
     66 C          18.9381   15.2935   -0.4887 C.ar    1  UNL1        0.0417
     67 C          18.8987   16.6768   -0.6752 C.ar    1  UNL1        0.0531
     68 N          19.2930   17.0658   -1.9615 N.ar    1  UNL1       -0.2520
     69 C          19.5982   16.0090   -2.6826 C.ar    1  UNL1        0.0655
     70 S          19.4536   14.4983   -1.9253 S.2     1  UNL1       -0.0752
     71 C          18.5140   17.7648    0.3000 C.3     1  UNL1       -0.0212
     72 O          21.9836    9.1361    4.9811 O.3     1  UNL1       -0.3902
     73 H          14.5251    4.2078    5.6586 H       1  UNL1        0.0248
     74 H          13.2775    5.5603    5.7141 H       1  UNL1        0.0248
     75 H          14.5921    5.6442    4.8167 H       1  UNL1        0.0248
     76 H          12.1363    3.9478    4.3455 H       1  UNL1        0.0510
     77 H          12.2120    4.6492    1.9557 H       1  UNL1        0.0445
     78 H          12.1267    5.9793    3.0555 H       1  UNL1        0.0445
     79 H          13.6831    5.3897   -0.0706 H       1  UNL1        0.0427
     80 H          15.2856    5.4772    0.4260 H       1  UNL1        0.0427
     81 H          13.2973    3.1762    0.5049 H       1  UNL1        0.0293
     82 H          14.9915    3.1548    0.1208 H       1  UNL1        0.0293
     83 H          14.9166    1.7144    1.9390 H       1  UNL1        0.0465
     84 H          15.4781    2.8685    2.7019 H       1  UNL1        0.0465
     85 H          14.5211   -0.9391    5.1475 H       1  UNL1        0.0831
     86 H          12.2166   -1.7713    4.5560 H       1  UNL1        0.0655
     87 H           7.0521   -2.6098    2.1392 H       1  UNL1        0.0278
     88 H           5.7650   -2.8781    3.3040 H       1  UNL1        0.0278
     89 H           7.5734   -4.6763    3.3255 H       1  UNL1        0.0269
     90 H           8.7382   -3.4625    3.8456 H       1  UNL1        0.0269
     91 H           6.2144   -4.3822    5.2904 H       1  UNL1        0.0318
     92 H           7.9046   -4.6084    5.7959 H       1  UNL1        0.0318
     93 H           6.8473    0.2135    9.5826 H       1  UNL1        0.1428
     94 H           6.9534   -1.4709    9.8428 H       1  UNL1        0.1428
     95 H           5.9849   -0.2295    2.2916 H       1  UNL1        0.0243
     96 H           5.1450   -0.2562    3.8556 H       1  UNL1        0.0243
     97 H           6.5019    0.8530    3.5752 H       1  UNL1        0.0243
     98 H          15.7772    6.9603    2.2683 H       1  UNL1        0.0427
     99 H          14.7560    6.8772    3.5730 H       1  UNL1        0.0427
    100 H          16.1835    4.4969    4.0119 H       1  UNL1        0.0279
    101 H          15.0665    4.3924    3.3361 H       1  UNL1        0.0279
    102 H          17.2449    3.3580    2.5328 H       1  UNL1        0.0298
    103 H          16.3720    4.0259    1.1921 H       1  UNL1        0.0298
    104 H          18.3789    4.7440    0.9693 H       1  UNL1        0.0697
    105 H          17.4516    6.1655    1.4341 H       1  UNL1        0.0697
    106 H          19.8886    6.8638    4.6493 H       1  UNL1        0.0881
    107 H          17.2498    7.8211    7.6916 H       1  UNL1        0.0644
    108 H          19.1929    6.5741    8.4074 H       1  UNL1        0.0321
    109 H          20.7182    8.7255    7.0367 H       1  UNL1        0.0233
    110 H          21.5286    7.4570    7.8908 H       1  UNL1        0.0233
    111 H          20.6571    7.0349    6.4583 H       1  UNL1        0.0233
    112 H          18.5819    8.4261    9.9408 H       1  UNL1        0.0233
    113 H          20.3493    8.3097    9.8282 H       1  UNL1        0.0233
    114 H          19.5040    9.5872    8.9686 H       1  UNL1        0.0233
    115 H          18.8443    9.1837    3.9136 H       1  UNL1        0.0490
    116 H          19.8598    8.4138    5.1716 H       1  UNL1        0.0490
    117 H          21.1023    9.7419    3.2731 H       1  UNL1        0.0610
    118 H          21.7716   11.7266    5.0733 H       1  UNL1        0.0313
    119 H          20.3160   11.8580    4.1683 H       1  UNL1        0.0313
    120 H          20.4420   10.9845    7.0172 H       1  UNL1        0.0597
    121 H          17.5130   13.5419    5.5373 H       1  UNL1        0.1494
    122 HA         18.3504   11.1418    3.9734 H       1  UNL1        0.0571
    123 H1         16.1504   10.7583    3.2000 H       1  UNL1        0.0579
    124 H2         16.1945   10.6722    4.9637 H       1  UNL1        0.0579
    125 H          15.5070   12.8950    4.9572 H       1  UNL1        0.2095
    126 H          16.1136   13.8567    2.8142 H       1  UNL1        0.0621
    127 H          16.5325   14.9714    0.7088 H       1  UNL1        0.0624
    128 H          20.5302   13.3848    0.6440 H       1  UNL1        0.0624
    129 H          19.9869   11.9579    2.4180 H       1  UNL1        0.0621
    130 H          19.9272   16.0401   -3.7104 H       1  UNL1        0.0907
    131 H          19.3371   18.4730    0.4669 H       1  UNL1        0.0293
    132 H          17.6641   18.3561   -0.0664 H       1  UNL1        0.0293
    133 H          18.2310   17.3692    1.2805 H       1  UNL1        0.0293
    134 H          21.9717    9.3080    5.9358 H       1  UNL1        0.2098
@<TRIPOS>BOND
     1     2     3    1
     2     3     4    1
     3     4     5    1
     4     5     6    1
     5     6     7    1
     6     7     8    1
     7     2     8    1
     8     8     9    1
     9     9    10   ar
    10    10    11   ar
    11    11    12   ar
    12    12    13   ar
    13    13    14   ar
    14     9    14   ar
    15    13    15    1
    16    15    16   ar
    17    16    17   ar
    18    17    18   ar
    19    18    19   ar
    20    15    19   ar
    21    20    21    1
    22    21    22    1
    23    22    23    1
    24    23    24    1
    25    24    25   ar
    26    20    25    1
    27    25    26   ar
    28    26    27   ar
    29    27    28   ar
    30    24    28   ar
    31    27    29    1
    32    26    30    1
    33    30    31    3
    34     4    33    1
    35    33    34    1
    36    34    35    1
    37    35    36    1
    38    36    37    1
    39    37    38    1
    40    38    39   ar
    41    39    40   ar
    42    40    41   ar
    43    41    42   ar
    44    38    42   ar
    45    40    43    1
    46    43    44    1
    47    44    45    1
    48    44    46    1
    49    43    47    1
    50    47    48    2
    51    47    49   am
    52    49    50    1
    53    50    51    1
    54    51    52    1
    55    52    53    1
    56    49    53    1
    57    53    54    1
    58    54    55    2
    59    54    56   am
    60    56    57    1
    61    57    58    1
    62    58    59    1
    63    57    60    1
    64    60    61   ar
    65    61    62   ar
    66    62    63   ar
    67    63    64   ar
    68    64    65   ar
    69    60    65   ar
    70    63    66    1
    71    66    67   ar
    72    67    68   ar
    73    68    69   ar
    74    69    70   ar
    75    66    70   ar
    76    67    71    1
    77    51    72    1
    78     1    73    1
    79     1    74    1
    80     1    75    1
    81     3    77    1
    82     3    78    1
    83     5    79    1
    84     5    80    1
    85     6    81    1
    86     6    82    1
    87     7    83    1
    88     7    84    1
    89    11    85    1
    90    12    86    1
    91    21    87    1
    92    21    88    1
    93    22    89    1
    94    22    90    1
    95    23    91    1
    96    23    92    1
    97    29    93    1
    98    29    94    1
    99    32    95    1
   100    32    96    1
   101    32    97    1
   102    33    98    1
   103    33    99    1
   104    34   100    1
   105    34   101    1
   106    35   102    1
   107    35   103    1
   108    36   104    1
   109    36   105    1
   110    39   106    1
   111    43   107    1
   112    44   108    1
   113    45   109    1
   114    45   110    1
   115    45   111    1
   116    46   112    1
   117    46   113    1
   118    46   114    1
   119    50   115    1
   120    50   116    1
   121    51   117    1
   122    52   118    1
   123    52   119    1
   124    53   120    1
   125    56   121    1
   126    57   122    1
   127    58   123    1
   128    58   124    1
   129    59   125    1
   130    61   126    1
   131    62   127    1
   132    64   128    1
   133    65   129    1
   134    69   130    1
   135    71   131    1
   136    71   132    1
   137    71   133    1
   138    72   134    1
   139    20    32    1
   140    20    18    1
   141     2    76    1
   142     2     1    1
