@<TRIPOS>MOLECULE
*****
 134 142 0 0 0
SMALL
GASTEIGER

@<TRIPOS>ATOM
      1 C         -12.5298    0.0288   -7.7492 C.3     1  UNL1       -0.0452
      2 C         -11.2103   -0.8748   -7.6461 C.3     1  UNL1        0.0361
      3 C         -11.4712   -2.2560   -6.9658 C.3     1  UNL1        0.0173
      4 N         -12.4259   -3.2300   -7.5732 N.3     1  UNL1       -0.3005
      5 C         -11.7226   -4.1795   -8.4323 C.3     1  UNL1        0.0004
      6 C         -10.4836   -3.6701   -9.2600 C.3     1  UNL1       -0.0243
      7 C         -10.3840   -2.2280   -9.8161 C.3     1  UNL1        0.0164
      8 N         -10.4033   -1.0892   -8.8992 N.pl3   1  UNL1       -0.2956
      9 C          -9.3247   -0.3329   -9.2008 C.ar    1  UNL1        0.2187
     10 N          -9.2907    0.3084  -10.3896 N.ar    1  UNL1       -0.2227
     11 C          -8.1171    0.8150  -10.7753 C.ar    1  UNL1        0.0333
     12 C          -6.9833    0.6270  -10.0441 C.ar    1  UNL1       -0.0142
     13 C          -7.1215   -0.1767   -8.9318 C.ar    1  UNL1        0.1162
     14 N          -8.2751   -0.6240   -8.4627 N.ar    1  UNL1       -0.2111
     15 C          -6.0106   -0.3836   -8.0616 C.ar    1  UNL1        0.2206
     16 N          -5.3826   -1.5307   -7.7570 N.ar    1  UNL1       -0.0544
     17 O          -4.3484   -1.0903   -6.8939 O.2     1  UNL1       -0.3367
     18 C          -4.5240    0.2629   -6.7750 C.ar    1  UNL1        0.2380
     19 N          -5.5053    0.7261   -7.4906 N.ar    1  UNL1       -0.1893
     20 C          -3.6258    1.1339   -5.9569 C.3     1  UNL1        0.0736
     21 C          -2.1613    1.0425   -6.5475 C.3     1  UNL1       -0.0347
     22 C          -2.0297    1.7490   -7.9002 C.3     1  UNL1       -0.0473
     23 C          -2.2689    3.2318   -7.7181 C.3     1  UNL1       -0.0210
     24 C          -3.5048    3.4916   -6.9475 C.ar    1  UNL1       -0.0030
     25 C          -4.1678    2.6314   -6.0916 C.ar    1  UNL1       -0.0031
     26 C          -5.3804    3.3284   -5.5802 C.ar    1  UNL1        0.0840
     27 C          -5.4646    4.6450   -6.0488 C.ar    1  UNL1        0.0810
     28 S          -4.1781    5.0175   -7.0962 S.2     1  UNL1       -0.0774
     29 N          -6.2963    5.6987   -5.8922 N.pl3   1  UNL1       -0.3516
     30 C          -6.3886    2.7450   -4.6913 C.1     1  UNL1        0.1019
     31 N          -7.1484    2.2979   -3.9805 N.1     1  UNL1       -0.1908
     32 C          -3.5832    0.6644   -4.5040 C.3     1  UNL1       -0.0469
     33 C         -13.5751   -2.6217   -8.2827 C.3     1  UNL1       -0.0009
     34 C         -13.1148   -2.0253   -9.6286 C.3     1  UNL1       -0.0371
     35 C         -12.8915   -2.8719  -10.8388 C.3     1  UNL1       -0.0174
     36 C         -14.1608   -3.4989  -11.1643 C.3     1  UNL1        0.0913
     37 O         -15.0491   -2.4951  -11.6529 O.3     1  UNL1       -0.4743
     38 C         -15.4313   -1.4822  -10.8049 C.ar    1  UNL1        0.2541
     39 C         -16.6649   -0.9788  -10.8947 C.ar    1  UNL1        0.0895
     40 N         -16.8090   -0.0414   -9.8836 N.ar    1  UNL1       -0.2358
     41 N         -15.6108    0.2347   -9.4109 N.ar    1  UNL1       -0.0614
     42 N         -14.8057   -0.4444  -10.1797 N.ar    1  UNL1       -0.0917
     43 C         -17.8882    0.7931   -9.3375 C.3     1  UNL1        0.1326
     44 C         -18.5073    1.7236  -10.4077 C.3     1  UNL1       -0.0157
     45 C         -19.1316    0.8991  -11.5009 C.3     1  UNL1       -0.0603
     46 C         -19.6098    2.6248   -9.8498 C.3     1  UNL1       -0.0603
     47 C         -18.9287    0.0255   -8.4721 C.2     1  UNL1        0.2412
     48 O         -19.2574    0.4630   -7.3662 O.2     1  UNL1       -0.2732
     49 N         -19.5777   -1.0792   -9.0094 N.am    1  UNL1       -0.2856
     50 C         -18.9722   -1.9472   -9.9524 C.3     1  UNL1        0.0416
     51 C         -19.9839   -2.6215  -10.8270 C.3     1  UNL1        0.0731
     52 C         -21.1635   -2.6015   -9.9015 C.3     1  UNL1        0.0018
     53 C         -21.0174   -1.3033   -9.0494 C.3     1  UNL1        0.1047
     54 C         -21.5583   -1.4187   -7.6341 C.2     1  UNL1        0.2342
     55 O         -22.5552   -0.7820   -7.2924 O.2     1  UNL1       -0.2738
     56 N         -20.9761   -2.2978   -6.7648 N.am    1  UNL1       -0.3047
     57 CA        -19.8337   -3.1838   -6.9901 C.3     1  UNL1        0.0714
     58 C         -18.6141   -2.7561   -6.1500 C.3     1  UNL1        0.0667
     59 O         -18.8691   -2.9308   -4.7597 O.3     1  UNL1       -0.3928
     60 C         -20.2568   -4.6292   -6.8677 C.ar    1  UNL1       -0.0250
     61 C         -21.4397   -5.1051   -7.4618 C.ar    1  UNL1       -0.0561
     62 C         -21.8924   -6.3938   -7.2201 C.ar    1  UNL1       -0.0532
     63 C         -21.1055   -7.2744   -6.4894 C.ar    1  UNL1       -0.0095
     64 C         -19.9226   -6.8106   -5.9039 C.ar    1  UNL1       -0.0532
     65 C         -19.4854   -5.5181   -6.1251 C.ar    1  UNL1       -0.0561
     66 C         -21.5360   -8.6426   -6.2724 C.ar    1  UNL1        0.0417
     67 C         -21.7518   -9.7241   -7.1267 C.ar    1  UNL1        0.0531
     68 N         -22.1232  -10.8914   -6.4497 N.ar    1  UNL1       -0.2520
     69 C         -22.1964  -10.6619   -5.1563 C.ar    1  UNL1        0.0655
     70 S         -21.8670   -9.0774   -4.6416 S.2     1  UNL1       -0.0752
     71 C         -21.6092   -9.7982   -8.6268 C.3     1  UNL1       -0.0212
     72 O         -20.2303   -1.8938  -12.0262 O.3     1  UNL1       -0.3902
     73 H         -12.4322    0.8718   -8.4356 H       1  UNL1        0.0248
     74 H         -12.9532    0.2478   -6.7627 H       1  UNL1        0.0248
     75 H         -13.4394   -0.3895   -8.1591 H       1  UNL1        0.0248
     76 H         -10.5947   -0.2738   -6.9725 H       1  UNL1        0.0510
     77 H         -10.4961   -2.7559   -6.8622 H       1  UNL1        0.0445
     78 H         -11.7822   -2.0731   -5.9334 H       1  UNL1        0.0445
     79 H         -11.3821   -5.0190   -7.8150 H       1  UNL1        0.0427
     80 H         -12.4816   -4.6953   -9.0450 H       1  UNL1        0.0427
     81 H          -9.5758   -3.8674   -8.6914 H       1  UNL1        0.0293
     82 H         -10.4242   -4.3448  -10.1322 H       1  UNL1        0.0293
     83 H          -9.7555   -2.1951  -10.7282 H       1  UNL1        0.0465
     84 H         -11.1663   -1.9223  -10.4499 H       1  UNL1        0.0465
     85 H          -8.1163    1.3821  -11.7001 H       1  UNL1        0.0831
     86 H          -6.0446    1.0927  -10.2992 H       1  UNL1        0.0655
     87 H          -1.8230    0.0033   -6.6657 H       1  UNL1        0.0278
     88 H          -1.4581    1.5151   -5.8468 H       1  UNL1        0.0278
     89 H          -1.0279    1.6171   -8.3227 H       1  UNL1        0.0269
     90 H          -2.7420    1.3312   -8.6224 H       1  UNL1        0.0269
     91 H          -1.4397    3.6783   -7.1586 H       1  UNL1        0.0318
     92 H          -2.3273    3.7106   -8.7000 H       1  UNL1        0.0318
     93 H          -7.1435    5.7746   -5.3449 H       1  UNL1        0.1428
     94 H          -6.0489    6.5485   -6.4048 H       1  UNL1        0.1428
     95 H          -4.5089    0.1601   -4.2081 H       1  UNL1        0.0243
     96 H          -2.7630   -0.0458   -4.3299 H       1  UNL1        0.0243
     97 H          -3.4222    1.5152   -3.8374 H       1  UNL1        0.0243
     98 H         -14.3975   -3.3206   -8.4455 H       1  UNL1        0.0427
     99 H         -14.0677   -1.9593   -7.5554 H       1  UNL1        0.0427
    100 H         -13.2003   -1.0611  -10.1094 H       1  UNL1        0.0279
    101 H         -12.3059   -1.4828   -9.2839 H       1  UNL1        0.0279
    102 H         -12.5131   -2.2713  -11.6861 H       1  UNL1        0.0298
    103 H         -12.1825   -3.6577  -10.6928 H       1  UNL1        0.0298
    104 H         -13.8551   -4.2308  -11.9274 H       1  UNL1        0.0697
    105 H         -14.5224   -4.0804  -10.3102 H       1  UNL1        0.0697
    106 H         -17.3392   -1.3714  -11.6338 H       1  UNL1        0.0881
    107 H         -17.3910    1.4741   -8.6180 H       1  UNL1        0.0644
    108 H         -17.7212    2.3481  -10.8510 H       1  UNL1        0.0321
    109 H         -19.9118    0.3359  -11.0075 H       1  UNL1        0.0233
    110 H         -19.6064    1.4413  -12.3074 H       1  UNL1        0.0233
    111 H         -18.4063    0.2476  -11.9756 H       1  UNL1        0.0233
    112 H         -19.2145    3.3648   -9.1517 H       1  UNL1        0.0233
    113 H         -20.1062    3.1519  -10.6722 H       1  UNL1        0.0233
    114 H         -20.3855    2.0447   -9.3366 H       1  UNL1        0.0233
    115 H         -18.2109   -2.5714   -9.4716 H       1  UNL1        0.0490
    116 H         -18.6210   -1.2230  -10.5991 H       1  UNL1        0.0490
    117 H         -19.6126   -3.5992  -11.1403 H       1  UNL1        0.0610
    118 H         -22.1180   -2.7009  -10.4115 H       1  UNL1        0.0313
    119 H         -21.0049   -3.4856   -9.3076 H       1  UNL1        0.0313
    120 H         -21.4905   -0.4618   -9.5692 H       1  UNL1        0.0597
    121 H         -21.4212   -2.3187   -5.8585 H       1  UNL1        0.1494
    122 HA        -19.4870   -3.1199   -8.0039 H       1  UNL1        0.0571
    123 H1        -17.7380   -3.3536   -6.4328 H       1  UNL1        0.0579
    124 H2        -18.3446   -1.7113   -6.3110 H       1  UNL1        0.0579
    125 H         -19.6983   -2.4582   -4.5741 H       1  UNL1        0.2095
    126 H         -22.0678   -4.4854   -8.0927 H       1  UNL1        0.0621
    127 H         -22.8895   -6.6716   -7.5498 H       1  UNL1        0.0624
    128 H         -19.3425   -7.4231   -5.2192 H       1  UNL1        0.0624
    129 H         -18.5503   -5.2165   -5.6615 H       1  UNL1        0.0621
    130 H         -22.4534  -11.4059   -4.4167 H       1  UNL1        0.0907
    131 H         -20.8438  -10.5257   -8.9275 H       1  UNL1        0.0293
    132 H         -22.5457  -10.1123   -9.1070 H       1  UNL1        0.0293
    133 H         -21.3297   -8.8365   -9.0684 H       1  UNL1        0.0293
    134 H         -20.6670   -1.0528  -11.8212 H       1  UNL1        0.2098
@<TRIPOS>BOND
     1     2     3    1
     2     3     4    1
     3     4     5    1
     4     5     6    1
     5     6     7    1
     6     7     8    1
     7     2     8    1
     8     8     9    1
     9     9    10   ar
    10    10    11   ar
    11    11    12   ar
    12    12    13   ar
    13    13    14   ar
    14     9    14   ar
    15    13    15    1
    16    15    16   ar
    17    16    17   ar
    18    17    18   ar
    19    18    19   ar
    20    15    19   ar
    21    20    21    1
    22    21    22    1
    23    22    23    1
    24    23    24    1
    25    24    25   ar
    26    20    25    1
    27    25    26   ar
    28    26    27   ar
    29    27    28   ar
    30    24    28   ar
    31    27    29    1
    32    26    30    1
    33    30    31    3
    34     4    33    1
    35    33    34    1
    36    34    35    1
    37    35    36    1
    38    36    37    1
    39    37    38    1
    40    38    39   ar
    41    39    40   ar
    42    40    41   ar
    43    41    42   ar
    44    38    42   ar
    45    40    43    1
    46    43    44    1
    47    44    45    1
    48    44    46    1
    49    43    47    1
    50    47    48    2
    51    47    49   am
    52    49    50    1
    53    50    51    1
    54    51    52    1
    55    52    53    1
    56    49    53    1
    57    53    54    1
    58    54    55    2
    59    54    56   am
    60    56    57    1
    61    57    58    1
    62    58    59    1
    63    57    60    1
    64    60    61   ar
    65    61    62   ar
    66    62    63   ar
    67    63    64   ar
    68    64    65   ar
    69    60    65   ar
    70    63    66    1
    71    66    67   ar
    72    67    68   ar
    73    68    69   ar
    74    69    70   ar
    75    66    70   ar
    76    67    71    1
    77    51    72    1
    78     1    73    1
    79     1    74    1
    80     1    75    1
    81     3    77    1
    82     3    78    1
    83     5    79    1
    84     5    80    1
    85     6    81    1
    86     6    82    1
    87     7    83    1
    88     7    84    1
    89    11    85    1
    90    12    86    1
    91    21    87    1
    92    21    88    1
    93    22    89    1
    94    22    90    1
    95    23    91    1
    96    23    92    1
    97    29    93    1
    98    29    94    1
    99    32    95    1
   100    32    96    1
   101    32    97    1
   102    33    98    1
   103    33    99    1
   104    34   100    1
   105    34   101    1
   106    35   102    1
   107    35   103    1
   108    36   104    1
   109    36   105    1
   110    39   106    1
   111    43   107    1
   112    44   108    1
   113    45   109    1
   114    45   110    1
   115    45   111    1
   116    46   112    1
   117    46   113    1
   118    46   114    1
   119    50   115    1
   120    50   116    1
   121    51   117    1
   122    52   118    1
   123    52   119    1
   124    53   120    1
   125    56   121    1
   126    57   122    1
   127    58   123    1
   128    58   124    1
   129    59   125    1
   130    61   126    1
   131    62   127    1
   132    64   128    1
   133    65   129    1
   134    69   130    1
   135    71   131    1
   136    71   132    1
   137    71   133    1
   138    72   134    1
   139     2    76    1
   140     2     1    1
   141    20    32    1
   142    20    18    1
