@<TRIPOS>MOLECULE
*****
 134 142 0 0 0
SMALL
GASTEIGER

@<TRIPOS>ATOM
      1 C          12.7940   -1.9067   -9.9068 C.3     1  UNL1       -0.0452
      2 C          12.3721   -1.9201   -8.3795 C.3     1  UNL1        0.0361
      3 C          12.2983   -3.4098   -7.8646 C.3     1  UNL1        0.0173
      4 N          13.5019   -4.3154   -7.8688 N.3     1  UNL1       -0.3005
      5 C          14.1760   -4.2318   -6.5644 C.3     1  UNL1        0.0004
      6 C          14.2165   -2.8317   -5.8189 C.3     1  UNL1       -0.0243
      7 C          14.2807   -1.4505   -6.5536 C.3     1  UNL1        0.0164
      8 N          13.1127   -1.1023   -7.3585 N.pl3   1  UNL1       -0.2956
      9 C          12.7513    0.1533   -7.0016 C.ar    1  UNL1        0.2187
     10 N          13.6626    1.1395   -7.1529 N.ar    1  UNL1       -0.2227
     11 C          13.4402    2.2891   -6.5142 C.ar    1  UNL1        0.0333
     12 C          12.3647    2.4578   -5.6945 C.ar    1  UNL1       -0.0142
     13 C          11.5649    1.3463   -5.5254 C.ar    1  UNL1        0.1162
     14 N          11.7162    0.2005   -6.1840 N.ar    1  UNL1       -0.2111
     15 C          10.4146    1.4139   -4.6707 C.ar    1  UNL1        0.2206
     16 N          10.1673    0.6536   -3.5912 N.ar    1  UNL1       -0.0544
     17 O           8.9290    1.1415   -3.1393 O.2     1  UNL1       -0.3367
     18 C           8.5744    2.1268   -4.0173 C.ar    1  UNL1        0.2380
     19 N           9.4743    2.3531   -4.9372 N.ar    1  UNL1       -0.1893
     20 C           7.2190    2.7703   -3.9463 C.3     1  UNL1        0.0736
     21 C           7.0373    3.5543   -2.5827 C.3     1  UNL1       -0.0347
     22 C           7.9360    4.7793   -2.4693 C.3     1  UNL1       -0.0473
     23 C           7.5453    5.7866   -3.5265 C.3     1  UNL1       -0.0210
     24 C           7.3950    5.1546   -4.8581 C.ar    1  UNL1       -0.0030
     25 C           7.1673    3.8185   -5.1537 C.ar    1  UNL1       -0.0031
     26 C           7.1725    3.6774   -6.6393 C.ar    1  UNL1        0.0840
     27 C           7.3400    4.9082   -7.2895 C.ar    1  UNL1        0.0810
     28 S           7.5268    6.1785   -6.1775 S.2     1  UNL1       -0.0774
     29 N           7.4059    5.3564   -8.5637 N.pl3   1  UNL1       -0.3516
     30 C           7.0557    2.4161   -7.3704 C.1     1  UNL1        0.1019
     31 N           6.9347    1.4373   -7.9321 N.1     1  UNL1       -0.1908
     32 C           6.1508    1.6603   -3.9152 C.3     1  UNL1       -0.0469
     33 C          14.4940   -4.1095   -8.9606 C.3     1  UNL1       -0.0009
     34 C          15.2499   -2.8323   -8.6778 C.3     1  UNL1       -0.0371
     35 C          16.4084   -2.7031   -7.7349 C.3     1  UNL1       -0.0174
     36 C          17.4724   -3.5538   -8.2490 C.3     1  UNL1        0.0913
     37 O          18.0031   -2.9474   -9.4430 O.3     1  UNL1       -0.4743
     38 C          17.1383   -2.8072  -10.5019 C.ar    1  UNL1        0.2541
     39 C          17.4195   -3.3308  -11.7055 C.ar    1  UNL1        0.0895
     40 N          16.3181   -3.1392  -12.5101 N.ar    1  UNL1       -0.2358
     41 N          15.5333   -2.2628  -11.8849 N.ar    1  UNL1       -0.0614
     42 N          16.2671   -1.8162  -10.8738 N.ar    1  UNL1       -0.0917
     43 C          15.9536   -3.4367  -13.9017 C.3     1  UNL1        0.1326
     44 C          16.8243   -2.6987  -14.9543 C.3     1  UNL1       -0.0157
     45 C          18.2700   -3.1097  -14.8110 C.3     1  UNL1       -0.0603
     46 C          16.4105   -2.9793  -16.4063 C.3     1  UNL1       -0.0603
     47 C          15.7834   -4.9250  -14.2182 C.2     1  UNL1        0.2412
     48 O          14.7574   -5.3037  -14.7919 O.2     1  UNL1       -0.2732
     49 N          16.8298   -5.8014  -13.9842 N.am    1  UNL1       -0.2856
     50 C          17.8123   -5.6929  -12.9494 C.3     1  UNL1        0.0416
     51 C          18.9571   -6.6159  -13.2361 C.3     1  UNL1        0.0731
     52 C          18.2849   -7.6794  -14.0643 C.3     1  UNL1        0.0018
     53 C          17.1744   -6.9293  -14.8436 C.3     1  UNL1        0.1047
     54 C          15.9480   -7.7819  -15.1275 C.2     1  UNL1        0.2342
     55 O          15.6572   -8.0893  -16.2843 O.2     1  UNL1       -0.2738
     56 N          15.1910   -8.2363  -14.0823 N.am    1  UNL1       -0.3047
     57 CA         15.3758   -8.0066  -12.6444 C.3     1  UNL1        0.0714
     58 C          14.2405   -7.2062  -11.9984 C.3     1  UNL1        0.0667
     59 O          13.0056   -7.9032  -12.0707 O.3     1  UNL1       -0.3928
     60 C          15.7045   -9.2918  -11.9332 C.ar    1  UNL1       -0.0250
     61 C          16.9115   -9.4601  -11.2294 C.ar    1  UNL1       -0.0561
     62 C          17.2581  -10.7066  -10.7094 C.ar    1  UNL1       -0.0532
     63 C          16.3298  -11.7456  -10.7265 C.ar    1  UNL1       -0.0095
     64 C          15.1307  -11.5703  -11.4385 C.ar    1  UNL1       -0.0532
     65 C          14.8232  -10.3600  -12.0358 C.ar    1  UNL1       -0.0561
     66 C          16.6203  -13.0359  -10.1086 C.ar    1  UNL1        0.0417
     67 C          16.8520  -13.4732   -8.7993 C.ar    1  UNL1        0.0531
     68 N          17.0232  -14.8627   -8.7051 N.ar    1  UNL1       -0.2520
     69 C          16.9413  -15.4151   -9.8950 C.ar    1  UNL1        0.0655
     70 S          16.6975  -14.3663  -11.2054 S.2     1  UNL1       -0.0752
     71 C          16.9087  -12.6914   -7.5076 C.3     1  UNL1       -0.0212
     72 O          19.9595   -5.9294  -13.9856 O.3     1  UNL1       -0.3902
     73 H          12.5389   -2.8763  -10.3637 H       1  UNL1        0.0248
     74 H          13.8324   -1.7316  -10.1480 H       1  UNL1        0.0248
     75 H          12.3376   -1.1439  -10.5333 H       1  UNL1        0.0248
     76 H          11.3580   -1.5159   -8.4352 H       1  UNL1        0.0510
     77 H          11.9128   -3.3701   -6.8347 H       1  UNL1        0.0445
     78 H          11.5022   -3.9159   -8.4186 H       1  UNL1        0.0445
     79 H          13.7158   -4.9628   -5.8882 H       1  UNL1        0.0427
     80 H          15.1737   -4.6906   -6.6789 H       1  UNL1        0.0427
     81 H          13.3604   -2.7828   -5.1451 H       1  UNL1        0.0293
     82 H          15.0885   -2.8801   -5.1447 H       1  UNL1        0.0293
     83 H          14.7004   -0.7244   -5.8329 H       1  UNL1        0.0465
     84 H          15.0605   -1.1701   -7.2447 H       1  UNL1        0.0465
     85 H          14.1703    3.0735   -6.6820 H       1  UNL1        0.0831
     86 H          12.1517    3.3990   -5.2136 H       1  UNL1        0.0655
     87 H           7.2050    2.9126   -1.7078 H       1  UNL1        0.0278
     88 H           5.9932    3.9009   -2.5101 H       1  UNL1        0.0278
     89 H           7.8295    5.2584   -1.4900 H       1  UNL1        0.0269
     90 H           8.9861    4.4858   -2.5770 H       1  UNL1        0.0269
     91 H           6.5793    6.2397   -3.2782 H       1  UNL1        0.0318
     92 H           8.3018    6.5770   -3.5574 H       1  UNL1        0.0318
     93 H           7.3255    4.8428   -9.4312 H       1  UNL1        0.1428
     94 H           7.5349    6.3645   -8.6831 H       1  UNL1        0.1428
     95 H           5.6539    1.6173   -2.9316 H       1  UNL1        0.0243
     96 H           5.3733    1.7993   -4.6632 H       1  UNL1        0.0243
     97 H           6.5829    0.6574   -4.0318 H       1  UNL1        0.0243
     98 H          15.1946   -4.9422   -9.0563 H       1  UNL1        0.0427
     99 H          14.0058   -4.1434   -9.9419 H       1  UNL1        0.0427
    100 H          15.4104   -2.0100   -9.3213 H       1  UNL1        0.0279
    101 H          14.4307   -2.2714   -8.4027 H       1  UNL1        0.0279
    102 H          16.7724   -1.6637   -7.6643 H       1  UNL1        0.0298
    103 H          16.2062   -3.0088   -6.7287 H       1  UNL1        0.0298
    104 H          18.1794   -3.5550   -7.4058 H       1  UNL1        0.0697
    105 H          17.0931   -4.5788   -8.3441 H       1  UNL1        0.0697
    106 H          18.4112   -3.6757  -11.8937 H       1  UNL1        0.0881
    107 H          14.9345   -3.0186  -14.0311 H       1  UNL1        0.0644
    108 H          16.7541   -1.6178  -14.7801 H       1  UNL1        0.0321
    109 H          18.3223   -4.1692  -15.0357 H       1  UNL1        0.0233
    110 H          18.9616   -2.6253  -15.4892 H       1  UNL1        0.0233
    111 H          18.6296   -2.8972  -13.8079 H       1  UNL1        0.0233
    112 H          15.4224   -2.5732  -16.6368 H       1  UNL1        0.0233
    113 H          17.1334   -2.5238  -17.0935 H       1  UNL1        0.0233
    114 H          16.4013   -4.0523  -16.6298 H       1  UNL1        0.0233
    115 H          17.3361   -5.8204  -11.9698 H       1  UNL1        0.0490
    116 H          18.2470   -4.7502  -13.1114 H       1  UNL1        0.0490
    117 H          19.4257   -6.9406  -12.3039 H       1  UNL1        0.0610
    118 H          18.9849   -8.2090  -14.7057 H       1  UNL1        0.0313
    119 H          17.8634   -8.4097  -13.3824 H       1  UNL1        0.0313
    120 H          17.5823   -6.5169  -15.7741 H       1  UNL1        0.0597
    121 H          14.4011   -8.7836  -14.3922 H       1  UNL1        0.1494
    122 HA         16.2432   -7.3969  -12.4939 H       1  UNL1        0.0571
    123 H1         14.4829   -7.0052  -10.9489 H       1  UNL1        0.0579
    124 H2         14.1058   -6.2409  -12.4927 H       1  UNL1        0.0579
    125 H          12.8557   -8.0851  -13.0138 H       1  UNL1        0.2095
    126 H          17.6086   -8.6344  -11.1015 H       1  UNL1        0.0621
    127 H          18.2667  -10.8724  -10.3385 H       1  UNL1        0.0624
    128 H          14.4274  -12.3869  -11.5772 H       1  UNL1        0.0624
    129 H          13.8854  -10.2482  -12.5721 H       1  UNL1        0.0621
    130 H          17.0254  -16.4750  -10.0870 H       1  UNL1        0.0907
    131 H          16.1332  -13.0143   -6.7989 H       1  UNL1        0.0293
    132 H          17.8695  -12.8319   -6.9920 H       1  UNL1        0.0293
    133 H          16.7802  -11.6165   -7.6614 H       1  UNL1        0.0293
    134 H          19.5611   -5.5497  -14.7868 H       1  UNL1        0.2098
@<TRIPOS>BOND
     1     2     3    1
     2     3     4    1
     3     4     5    1
     4     5     6    1
     5     6     7    1
     6     7     8    1
     7     2     8    1
     8     8     9    1
     9     9    10   ar
    10    10    11   ar
    11    11    12   ar
    12    12    13   ar
    13    13    14   ar
    14     9    14   ar
    15    13    15    1
    16    15    16   ar
    17    16    17   ar
    18    17    18   ar
    19    18    19   ar
    20    15    19   ar
    21    20    21    1
    22    21    22    1
    23    22    23    1
    24    23    24    1
    25    24    25   ar
    26    20    25    1
    27    25    26   ar
    28    26    27   ar
    29    27    28   ar
    30    24    28   ar
    31    27    29    1
    32    26    30    1
    33    30    31    3
    34     4    33    1
    35    33    34    1
    36    34    35    1
    37    35    36    1
    38    36    37    1
    39    37    38    1
    40    38    39   ar
    41    39    40   ar
    42    40    41   ar
    43    41    42   ar
    44    38    42   ar
    45    40    43    1
    46    43    44    1
    47    44    45    1
    48    44    46    1
    49    43    47    1
    50    47    48    2
    51    47    49   am
    52    49    50    1
    53    50    51    1
    54    51    52    1
    55    52    53    1
    56    49    53    1
    57    53    54    1
    58    54    55    2
    59    54    56   am
    60    56    57    1
    61    57    58    1
    62    58    59    1
    63    57    60    1
    64    60    61   ar
    65    61    62   ar
    66    62    63   ar
    67    63    64   ar
    68    64    65   ar
    69    60    65   ar
    70    63    66    1
    71    66    67   ar
    72    67    68   ar
    73    68    69   ar
    74    69    70   ar
    75    66    70   ar
    76    67    71    1
    77    51    72    1
    78     1    73    1
    79     1    74    1
    80     1    75    1
    81     3    77    1
    82     3    78    1
    83     5    79    1
    84     5    80    1
    85     6    81    1
    86     6    82    1
    87     7    83    1
    88     7    84    1
    89    11    85    1
    90    12    86    1
    91    21    87    1
    92    21    88    1
    93    22    89    1
    94    22    90    1
    95    23    91    1
    96    23    92    1
    97    29    93    1
    98    29    94    1
    99    32    95    1
   100    32    96    1
   101    32    97    1
   102    33    98    1
   103    33    99    1
   104    34   100    1
   105    34   101    1
   106    35   102    1
   107    35   103    1
   108    36   104    1
   109    36   105    1
   110    39   106    1
   111    43   107    1
   112    44   108    1
   113    45   109    1
   114    45   110    1
   115    45   111    1
   116    46   112    1
   117    46   113    1
   118    46   114    1
   119    50   115    1
   120    50   116    1
   121    51   117    1
   122    52   118    1
   123    52   119    1
   124    53   120    1
   125    56   121    1
   126    57   122    1
   127    58   123    1
   128    58   124    1
   129    59   125    1
   130    61   126    1
   131    62   127    1
   132    64   128    1
   133    65   129    1
   134    69   130    1
   135    71   131    1
   136    71   132    1
   137    71   133    1
   138    72   134    1
   139     2    76    1
   140     2     1    1
   141    20    32    1
   142    20    18    1
