@<TRIPOS>MOLECULE
*****
 134 142 0 0 0
SMALL
GASTEIGER

@<TRIPOS>ATOM
      1 C          12.0952   -1.9226  -10.6927 C.3     1  UNL1       -0.0452
      2 C          11.7832   -1.9316   -9.1412 C.3     1  UNL1        0.0361
      3 C          11.7677   -3.4227   -8.6316 C.3     1  UNL1        0.0173
      4 N          12.9847   -4.3063   -8.7215 N.3     1  UNL1       -0.3005
      5 C          13.7376   -4.2170   -7.4621 C.3     1  UNL1        0.0004
      6 C          13.8016   -2.8199   -6.7146 C.3     1  UNL1       -0.0243
      7 C          13.7989   -1.4321   -7.4420 C.3     1  UNL1        0.0164
      8 N          12.5778   -1.0997   -8.1730 N.pl3   1  UNL1       -0.2956
      9 C          12.2143    0.1443   -7.7760 C.ar    1  UNL1        0.2187
     10 N          13.0989    1.1478   -7.9689 N.ar    1  UNL1       -0.2227
     11 C          12.9025    2.2839   -7.2982 C.ar    1  UNL1        0.0333
     12 C          11.8791    2.4240   -6.4092 C.ar    1  UNL1       -0.0142
     13 C          11.1066    1.2982   -6.2079 C.ar    1  UNL1        0.1162
     14 N          11.2319    0.1643   -6.8938 N.ar    1  UNL1       -0.2111
     15 C          10.0102    1.3371   -5.2816 C.ar    1  UNL1        0.2206
     16 N           9.8360    0.5557   -4.2027 N.ar    1  UNL1       -0.0544
     17 O           8.6178    1.0171   -3.6716 O.2     1  UNL1       -0.3367
     18 C           8.2014    2.0140   -4.5080 C.ar    1  UNL1        0.2380
     19 N           9.0446    2.2685   -5.4738 N.ar    1  UNL1       -0.1893
     20 C           6.8462    2.6432   -4.3497 C.3     1  UNL1        0.0736
     21 C           6.7328    3.4129   -2.9717 C.3     1  UNL1       -0.0347
     22 C           7.6152    4.6515   -2.8960 C.3     1  UNL1       -0.0473
     23 C           7.1501    5.6609   -3.9209 C.3     1  UNL1       -0.0210
     24 C           6.9381    5.0373   -5.2483 C.ar    1  UNL1       -0.0030
     25 C           6.7147    3.7001   -5.5421 C.ar    1  UNL1       -0.0031
     26 C           6.6460    3.5688   -7.0261 C.ar    1  UNL1        0.0840
     27 C           6.7606    4.8056   -7.6751 C.ar    1  UNL1        0.0810
     28 S           6.9846    6.0720   -6.5654 S.2     1  UNL1       -0.0774
     29 N           6.7540    5.2599   -8.9487 N.pl3   1  UNL1       -0.3516
     30 C           6.5141    2.3102   -7.7603 C.1     1  UNL1        0.1019
     31 N           6.3828    1.3354   -8.3230 N.1     1  UNL1       -0.1908
     32 C           5.7854    1.5299   -4.2619 C.3     1  UNL1       -0.0469
     33 C          13.9054   -4.0779   -9.8716 C.3     1  UNL1       -0.0009
     34 C          14.6581   -2.7882   -9.6310 C.3     1  UNL1       -0.0371
     35 C          15.8718   -2.6450   -8.7614 C.3     1  UNL1       -0.0174
     36 C          16.9157   -3.4760   -9.3461 C.3     1  UNL1        0.0913
     37 O          17.3626   -2.8540  -10.5650 O.3     1  UNL1       -0.4743
     38 C          16.4325   -2.7234  -11.5668 C.ar    1  UNL1        0.2541
     39 C          16.6483   -3.2418  -12.7862 C.ar    1  UNL1        0.0895
     40 N          15.5014   -3.0611  -13.5237 N.ar    1  UNL1       -0.2358
     41 N          14.7444   -2.1923  -12.8535 N.ar    1  UNL1       -0.0614
     42 N          15.5238   -1.7456  -11.8769 N.ar    1  UNL1       -0.0917
     43 C          15.0647   -3.3626  -14.8924 C.3     1  UNL1        0.1326
     44 C          15.8617   -2.6094  -15.9914 C.3     1  UNL1       -0.0157
     45 C          17.3206   -2.9956  -15.9335 C.3     1  UNL1       -0.0603
     46 C          15.3691   -2.8936  -17.4180 C.3     1  UNL1       -0.0603
     47 C          14.9012   -4.8517  -15.2028 C.2     1  UNL1        0.2412
     48 O          13.8493   -5.2436  -15.7180 O.2     1  UNL1       -0.2732
     49 N          15.9719   -5.7138  -15.0351 N.am    1  UNL1       -0.2856
     50 C          17.0175   -5.5991  -14.0628 C.3     1  UNL1        0.0416
     51 C          18.1481   -6.5137  -14.4259 C.3     1  UNL1        0.0731
     52 C          17.4349   -7.5790  -15.2169 C.3     1  UNL1        0.0018
     53 C          16.2708   -6.8358  -15.9191 C.3     1  UNL1        0.1047
     54 C          15.0370   -7.7003  -16.1292 C.2     1  UNL1        0.2342
     55 O          14.6773   -8.0064  -17.2669 O.2     1  UNL1       -0.2738
     56 N          14.3508   -8.1663  -15.0411 N.am    1  UNL1       -0.3047
     57 CA         14.6220   -7.9402  -13.6166 C.3     1  UNL1        0.0714
     58 C          13.5216   -7.1518  -12.8976 C.3     1  UNL1        0.0667
     59 O          12.2888   -7.8564  -12.8971 O.3     1  UNL1       -0.3928
     60 C          15.0044   -9.2254  -12.9326 C.ar    1  UNL1       -0.0250
     61 C          16.2588   -9.3905  -12.3163 C.ar    1  UNL1       -0.0561
     62 C          16.6424  -10.6339  -11.8162 C.ar    1  UNL1       -0.0532
     63 C          15.7169  -11.6743  -11.7654 C.ar    1  UNL1       -0.0095
     64 C          14.4701  -11.5031  -12.3908 C.ar    1  UNL1       -0.0532
     65 C          14.1202  -10.2958  -12.9707 C.ar    1  UNL1       -0.0561
     66 C          16.0538  -12.9610  -11.1647 C.ar    1  UNL1        0.0417
     67 C          16.3897  -13.3875   -9.8751 C.ar    1  UNL1        0.0531
     68 N          16.5748  -14.7747   -9.7837 N.ar    1  UNL1       -0.2520
     69 C          16.4006  -15.3370  -10.9588 C.ar    1  UNL1        0.0655
     70 S          16.0448  -14.3002  -12.2532 S.2     1  UNL1       -0.0752
     71 C          16.5456  -12.5960   -8.5988 C.3     1  UNL1       -0.0212
     72 O          19.0964   -5.8163  -15.2337 O.3     1  UNL1       -0.3902
     73 H          11.7866   -2.8877  -11.1268 H       1  UNL1        0.0248
     74 H          13.1164   -1.7883  -11.0159 H       1  UNL1        0.0248
     75 H          11.6152   -1.1442  -11.2806 H       1  UNL1        0.0248
     76 H          10.7623   -1.5408   -9.1280 H       1  UNL1        0.0510
     77 H          11.4463   -3.3957   -7.5798 H       1  UNL1        0.0445
     78 H          10.9473   -3.9394   -9.1389 H       1  UNL1        0.0445
     79 H          13.3297   -4.9575   -6.7630 H       1  UNL1        0.0427
     80 H          14.7337   -4.6581   -7.6393 H       1  UNL1        0.0427
     81 H          12.9873   -2.7888   -5.9897 H       1  UNL1        0.0293
     82 H          14.7127   -2.8586   -6.0940 H       1  UNL1        0.0293
     83 H          14.2401   -0.7078   -6.7330 H       1  UNL1        0.0465
     84 H          14.5321   -1.1258   -8.1755 H       1  UNL1        0.0465
     85 H          13.6109    3.0806   -7.4986 H       1  UNL1        0.0831
     86 H          11.6848    3.3550   -5.9011 H       1  UNL1        0.0655
     87 H           6.9599    2.7663   -2.1139 H       1  UNL1        0.0278
     88 H           5.6888    3.7410   -2.8372 H       1  UNL1        0.0278
     89 H           7.5523    5.1192   -1.9075 H       1  UNL1        0.0269
     90 H           8.6627    4.3767   -3.0618 H       1  UNL1        0.0269
     91 H           6.1914    6.0948   -3.6164 H       1  UNL1        0.0318
     92 H           7.8900    6.4648   -3.9849 H       1  UNL1        0.0318
     93 H           6.6366    4.7482   -9.8131 H       1  UNL1        0.1428
     94 H           6.8597    6.2703   -9.0692 H       1  UNL1        0.1428
     95 H           5.4199    1.4180   -3.2265 H       1  UNL1        0.0243
     96 H           4.9154    1.7279   -4.8852 H       1  UNL1        0.0243
     97 H           6.1892    0.5391   -4.5053 H       1  UNL1        0.0243
     98 H          14.6097   -4.9016  -10.0120 H       1  UNL1        0.0427
     99 H          13.3604   -4.1116  -10.8229 H       1  UNL1        0.0427
    100 H          14.7489   -1.9524  -10.2754 H       1  UNL1        0.0279
    101 H          13.8476   -2.2538   -9.2870 H       1  UNL1        0.0279
    102 H          16.2221   -1.6001   -8.7079 H       1  UNL1        0.0298
    103 H          15.7384   -2.9574   -7.7452 H       1  UNL1        0.0298
    104 H          17.6760   -3.4714   -8.5511 H       1  UNL1        0.0697
    105 H          16.5495   -4.5072   -9.4256 H       1  UNL1        0.0697
    106 H          17.6313   -3.5713  -13.0347 H       1  UNL1        0.0881
    107 H          14.0330   -2.9621  -14.9618 H       1  UNL1        0.0644
    108 H          15.7830   -1.5302  -15.8101 H       1  UNL1        0.0321
    109 H          17.3803   -4.0535  -16.1645 H       1  UNL1        0.0233
    110 H          17.9617   -2.4957  -16.6494 H       1  UNL1        0.0233
    111 H          17.7345   -2.7796  -14.9524 H       1  UNL1        0.0233
    112 H          14.3626   -2.5034  -17.5898 H       1  UNL1        0.0233
    113 H          16.0432   -2.4244  -18.1445 H       1  UNL1        0.0233
    114 H          15.3647   -3.9660  -17.6446 H       1  UNL1        0.0233
    115 H          16.6050   -5.7374  -13.0563 H       1  UNL1        0.0490
    116 H          17.4367   -4.6515  -14.2425 H       1  UNL1        0.0490
    117 H          18.6766   -6.8403  -13.5269 H       1  UNL1        0.0610
    118 H          18.0977   -8.0974  -15.9056 H       1  UNL1        0.0313
    119 H          17.0640   -8.3184  -14.5158 H       1  UNL1        0.0313
    120 H          16.6141   -6.4151  -16.8718 H       1  UNL1        0.0597
    121 H          13.5478   -8.7190  -15.3042 H       1  UNL1        0.1494
    122 HA         15.4918   -7.3231  -13.5171 H       1  UNL1        0.0571
    123 H1         13.8262   -6.9546  -11.8636 H       1  UNL1        0.0579
    124 H2         13.3499   -6.1847  -13.3768 H       1  UNL1        0.0579
    125 H          12.0821   -8.0359  -13.8299 H       1  UNL1        0.2095
    126 H          16.9632   -8.5645  -12.2417 H       1  UNL1        0.0621
    127 H          17.6740  -10.7965  -11.5132 H       1  UNL1        0.0624
    128 H          13.7587  -12.3203  -12.4737 H       1  UNL1        0.0624
    129 H          13.1474  -10.1881  -13.4415 H       1  UNL1        0.0621
    130 H          16.4760  -16.3982  -11.1468 H       1  UNL1        0.0907
    131 H          15.8316  -12.9192   -7.8285 H       1  UNL1        0.0293
    132 H          17.5458  -12.7284   -8.1626 H       1  UNL1        0.0293
    133 H          16.3982  -11.5230   -8.7487 H       1  UNL1        0.0293
    134 H          18.6441   -5.4326  -16.0039 H       1  UNL1        0.2098
@<TRIPOS>BOND
     1     2     3    1
     2     3     4    1
     3     4     5    1
     4     5     6    1
     5     6     7    1
     6     7     8    1
     7     2     8    1
     8     8     9    1
     9     9    10   ar
    10    10    11   ar
    11    11    12   ar
    12    12    13   ar
    13    13    14   ar
    14     9    14   ar
    15    13    15    1
    16    15    16   ar
    17    16    17   ar
    18    17    18   ar
    19    18    19   ar
    20    15    19   ar
    21    20    21    1
    22    21    22    1
    23    22    23    1
    24    23    24    1
    25    24    25   ar
    26    20    25    1
    27    25    26   ar
    28    26    27   ar
    29    27    28   ar
    30    24    28   ar
    31    27    29    1
    32    26    30    1
    33    30    31    3
    34     4    33    1
    35    33    34    1
    36    34    35    1
    37    35    36    1
    38    36    37    1
    39    37    38    1
    40    38    39   ar
    41    39    40   ar
    42    40    41   ar
    43    41    42   ar
    44    38    42   ar
    45    40    43    1
    46    43    44    1
    47    44    45    1
    48    44    46    1
    49    43    47    1
    50    47    48    2
    51    47    49   am
    52    49    50    1
    53    50    51    1
    54    51    52    1
    55    52    53    1
    56    49    53    1
    57    53    54    1
    58    54    55    2
    59    54    56   am
    60    56    57    1
    61    57    58    1
    62    58    59    1
    63    57    60    1
    64    60    61   ar
    65    61    62   ar
    66    62    63   ar
    67    63    64   ar
    68    64    65   ar
    69    60    65   ar
    70    63    66    1
    71    66    67   ar
    72    67    68   ar
    73    68    69   ar
    74    69    70   ar
    75    66    70   ar
    76    67    71    1
    77    51    72    1
    78     1    73    1
    79     1    74    1
    80     1    75    1
    81     3    77    1
    82     3    78    1
    83     5    79    1
    84     5    80    1
    85     6    81    1
    86     6    82    1
    87     7    83    1
    88     7    84    1
    89    11    85    1
    90    12    86    1
    91    21    87    1
    92    21    88    1
    93    22    89    1
    94    22    90    1
    95    23    91    1
    96    23    92    1
    97    29    93    1
    98    29    94    1
    99    32    95    1
   100    32    96    1
   101    32    97    1
   102    33    98    1
   103    33    99    1
   104    34   100    1
   105    34   101    1
   106    35   102    1
   107    35   103    1
   108    36   104    1
   109    36   105    1
   110    39   106    1
   111    43   107    1
   112    44   108    1
   113    45   109    1
   114    45   110    1
   115    45   111    1
   116    46   112    1
   117    46   113    1
   118    46   114    1
   119    50   115    1
   120    50   116    1
   121    51   117    1
   122    52   118    1
   123    52   119    1
   124    53   120    1
   125    56   121    1
   126    57   122    1
   127    58   123    1
   128    58   124    1
   129    59   125    1
   130    61   126    1
   131    62   127    1
   132    64   128    1
   133    65   129    1
   134    69   130    1
   135    71   131    1
   136    71   132    1
   137    71   133    1
   138    72   134    1
   139     2    76    1
   140     2     1    1
   141    20    32    1
   142    20    18    1
