@<TRIPOS>MOLECULE
*****
 134 142 0 0 0
SMALL
GASTEIGER

@<TRIPOS>ATOM
      1 C           5.0237    5.0616  -14.0461 C.3     1  UNL1       -0.0452
      2 C           3.8189    4.4410  -13.1964 C.3     1  UNL1        0.0361
      3 C           2.7397    5.5297  -12.9047 C.3     1  UNL1        0.0173
      4 N           2.0040    6.1874  -14.0291 N.3     1  UNL1       -0.3005
      5 C           0.7443    5.4897  -14.2819 C.3     1  UNL1        0.0004
      6 C           0.7123    3.9193  -14.1270 C.3     1  UNL1       -0.0243
      7 C           1.9298    2.9992  -14.4455 C.3     1  UNL1        0.0164
      8 N           3.1266    3.1752  -13.6324 N.pl3   1  UNL1       -0.2956
      9 C           3.4939    1.9521  -13.1865 C.ar    1  UNL1        0.2187
     10 N           3.9029    1.0289  -14.0810 N.ar    1  UNL1       -0.2227
     11 C           4.0694   -0.2183  -13.6338 C.ar    1  UNL1        0.0333
     12 C           3.7761   -0.5690  -12.3485 C.ar    1  UNL1       -0.0142
     13 C           3.2428    0.4319  -11.5675 C.ar    1  UNL1        0.1162
     14 N           3.1074    1.6956  -11.9522 N.ar    1  UNL1       -0.2111
     15 C           2.9009    0.1769  -10.1995 C.ar    1  UNL1        0.2206
     16 N           1.6634    0.2271   -9.6833 N.ar    1  UNL1       -0.0544
     17 O           1.8688   -0.1488   -8.3528 O.2     1  UNL1       -0.3367
     18 C           3.2196   -0.3492   -8.2118 C.ar    1  UNL1        0.2380
     19 N           3.8819   -0.1980   -9.3276 N.ar    1  UNL1       -0.1893
     20 C           3.7478   -0.7816   -6.8710 C.3     1  UNL1        0.0736
     21 C           3.0415   -2.1607   -6.5086 C.3     1  UNL1       -0.0347
     22 C           3.5989   -3.3338   -7.3169 C.3     1  UNL1       -0.0473
     23 C           5.0476   -3.5505   -6.9416 C.3     1  UNL1       -0.0210
     24 C           5.8114   -2.2835   -6.9927 C.ar    1  UNL1       -0.0030
     25 C           5.3224   -0.9896   -6.9360 C.ar    1  UNL1       -0.0031
     26 C           6.4823   -0.0582   -7.0323 C.ar    1  UNL1        0.0840
     27 C           7.7037   -0.7407   -7.1054 C.ar    1  UNL1        0.0810
     28 S           7.4775   -2.4244   -7.0932 S.2     1  UNL1       -0.0774
     29 N           9.0142   -0.4182   -7.1821 N.pl3   1  UNL1       -0.3516
     30 C           6.4046    1.4031   -7.0418 C.1     1  UNL1        0.1019
     31 N           6.3334    2.5359   -7.0174 N.1     1  UNL1       -0.1908
     32 C           3.3122    0.2308   -5.8008 C.3     1  UNL1       -0.0469
     33 C           2.7663    6.3561  -15.2905 C.3     1  UNL1       -0.0009
     34 C           2.9251    5.0003  -15.9873 C.3     1  UNL1       -0.0371
     35 C           1.8333    4.3814  -16.8034 C.3     1  UNL1       -0.0174
     36 C           1.5449    5.2840  -17.9057 C.3     1  UNL1        0.0913
     37 O           2.6479    5.2382  -18.8146 O.3     1  UNL1       -0.4743
     38 C           3.8691    5.6742  -18.3587 C.ar    1  UNL1        0.2541
     39 C           4.6438    6.4222  -19.1522 C.ar    1  UNL1        0.0895
     40 N           5.7676    6.7710  -18.4296 N.ar    1  UNL1       -0.2358
     41 N           5.7974    6.0067  -17.3489 N.ar    1  UNL1       -0.0614
     42 N           4.8361    5.1365  -17.5553 N.ar    1  UNL1       -0.0917
     43 C           6.9724    7.5764  -18.6528 C.3     1  UNL1        0.1326
     44 C           7.8390    7.0678  -19.8351 C.3     1  UNL1       -0.0157
     45 C           7.0431    7.1447  -21.1088 C.3     1  UNL1       -0.0603
     46 C           9.1118    7.8934  -20.0546 C.3     1  UNL1       -0.0603
     47 C           6.7185    9.1004  -18.6609 C.2     1  UNL1        0.2412
     48 O           7.4156    9.8394  -17.9592 O.2     1  UNL1       -0.2732
     49 N           5.8104    9.6433  -19.5601 N.am    1  UNL1       -0.2856
     50 C           4.6205    9.0023  -20.0145 C.3     1  UNL1        0.0416
     51 C           4.2022    9.5424  -21.3513 C.3     1  UNL1        0.0731
     52 C           4.8020   10.9238  -21.3006 C.3     1  UNL1        0.0018
     53 C           6.0937   10.7667  -20.4475 C.3     1  UNL1        0.1047
     54 C           6.4377   11.9932  -19.6255 C.2     1  UNL1        0.2342
     55 O           7.4501   12.6492  -19.8721 O.2     1  UNL1       -0.2738
     56 N           5.5813   12.3943  -18.6396 N.am    1  UNL1       -0.3047
     57 CA          4.3129   11.7862  -18.2180 C.3     1  UNL1        0.0714
     58 C           4.3491   11.2510  -16.7866 C.3     1  UNL1        0.0667
     59 O           4.5309   12.3053  -15.8518 O.3     1  UNL1       -0.3928
     60 C           3.1457   12.6945  -18.4963 C.ar    1  UNL1       -0.0250
     61 C           2.0031   12.2452  -19.1836 C.ar    1  UNL1       -0.0561
     62 C           0.9797   13.1376  -19.5012 C.ar    1  UNL1       -0.0532
     63 C           1.0105   14.4389  -19.0000 C.ar    1  UNL1       -0.0095
     64 C           2.1673   14.8843  -18.3401 C.ar    1  UNL1       -0.0532
     65 C           3.2203   14.0214  -18.0909 C.ar    1  UNL1       -0.0561
     66 C          -0.1104   15.3497  -19.2137 C.ar    1  UNL1        0.0417
     67 C          -1.4641   15.3268  -18.8595 C.ar    1  UNL1        0.0531
     68 N          -2.1664   16.4636  -19.2845 N.ar    1  UNL1       -0.2520
     69 C          -1.3631   17.2805  -19.9296 C.ar    1  UNL1        0.0655
     70 S           0.2509   16.7831  -20.1008 S.2     1  UNL1       -0.0752
     71 C          -2.2407   14.2862  -18.0879 C.3     1  UNL1       -0.0212
     72 O           4.7471    8.7592  -22.4151 O.3     1  UNL1       -0.3902
     73 H           5.7919    4.3448  -14.3278 H       1  UNL1        0.0248
     74 H           5.3818    5.9778  -13.5554 H       1  UNL1        0.0248
     75 H           4.8657    5.4986  -15.0271 H       1  UNL1        0.0248
     76 H           4.3299    4.1948  -12.2627 H       1  UNL1        0.0510
     77 H           2.0007    5.0797  -12.2249 H       1  UNL1        0.0445
     78 H           3.2093    6.3125  -12.3027 H       1  UNL1        0.0445
     79 H          -0.0203    5.9082  -13.6162 H       1  UNL1        0.0427
     80 H           0.3599    5.8419  -15.2543 H       1  UNL1        0.0427
     81 H           0.3929    3.6826  -13.1120 H       1  UNL1        0.0293
     82 H          -0.1221    3.5819  -14.7652 H       1  UNL1        0.0293
     83 H           1.5498    1.9878  -14.6845 H       1  UNL1        0.0465
     84 H           2.3925    2.9868  -15.4089 H       1  UNL1        0.0465
     85 H           4.4593   -0.9339  -14.3499 H       1  UNL1        0.0831
     86 H           3.9577   -1.5585  -11.9626 H       1  UNL1        0.0655
     87 H           1.9533   -2.1212   -6.6533 H       1  UNL1        0.0278
     88 H           3.1959   -2.3887   -5.4437 H       1  UNL1        0.0278
     89 H           3.0517   -4.2585   -7.1053 H       1  UNL1        0.0269
     90 H           3.5058   -3.1372   -8.3913 H       1  UNL1        0.0269
     91 H           5.1170   -3.9350   -5.9174 H       1  UNL1        0.0318
     92 H           5.4897   -4.2856   -7.6204 H       1  UNL1        0.0318
     93 H           9.4523    0.4926   -7.2189 H       1  UNL1        0.1428
     94 H           9.6701   -1.2019   -7.2322 H       1  UNL1        0.1428
     95 H           4.0612    1.0059   -5.6438 H       1  UNL1        0.0243
     96 H           2.3699    0.7311   -6.0615 H       1  UNL1        0.0243
     97 H           3.1438   -0.2580   -4.8347 H       1  UNL1        0.0243
     98 H           2.3065    7.0720  -15.9742 H       1  UNL1        0.0427
     99 H           3.6835    6.9121  -15.0524 H       1  UNL1        0.0427
    100 H           3.7762    4.4641  -16.3555 H       1  UNL1        0.0279
    101 H           3.2462    4.4528  -15.1714 H       1  UNL1        0.0279
    102 H           2.1159    3.3857  -17.1874 H       1  UNL1        0.0298
    103 H           0.9170    4.2406  -16.2743 H       1  UNL1        0.0298
    104 H           0.6182    4.8497  -18.3113 H       1  UNL1        0.0697
    105 H           1.2750    6.2728  -17.5185 H       1  UNL1        0.0697
    106 H           4.3378    6.5890  -20.1662 H       1  UNL1        0.0881
    107 H           7.6032    7.4134  -17.7559 H       1  UNL1        0.0644
    108 H           8.1200    6.0207  -19.6655 H       1  UNL1        0.0321
    109 H           6.8336    8.1966  -21.2303 H       1  UNL1        0.0233
    110 H           7.5428    6.8264  -22.0143 H       1  UNL1        0.0233
    111 H           6.1309    6.5612  -21.0475 H       1  UNL1        0.0233
    112 H           9.8226    7.7726  -19.2346 H       1  UNL1        0.0233
    113 H           9.6016    7.5809  -20.9844 H       1  UNL1        0.0233
    114 H           8.8908    8.9615  -20.1637 H       1  UNL1        0.0233
    115 H           3.8624    8.9787  -19.2230 H       1  UNL1        0.0490
    116 H           4.9990    8.0755  -20.2805 H       1  UNL1        0.0490
    117 H           3.1194    9.4758  -21.4661 H       1  UNL1        0.0610
    118 H           4.9864   11.3340  -22.2909 H       1  UNL1        0.0313
    119 H           4.0731   11.5667  -20.8141 H       1  UNL1        0.0313
    120 H           6.9388   10.4887  -21.0882 H       1  UNL1        0.0597
    121 H           5.9104   13.2217  -18.1648 H       1  UNL1        0.1494
    122 HA          4.1145   10.9254  -18.8218 H       1  UNL1        0.0571
    123 H1          3.4117   10.7294  -16.5629 H       1  UNL1        0.0579
    124 H2          5.1675   10.5366  -16.6570 H       1  UNL1        0.0579
    125 H           5.3525   12.7548  -16.1119 H       1  UNL1        0.2095
    126 H           1.8975   11.2051  -19.4870 H       1  UNL1        0.0621
    127 H           0.1776   12.8263  -20.1663 H       1  UNL1        0.0624
    128 H           2.2845   15.9170  -18.0238 H       1  UNL1        0.0624
    129 H           4.0934   14.3797  -17.5541 H       1  UNL1        0.0621
    130 H          -1.6643   18.2280  -20.3532 H       1  UNL1        0.0907
    131 H          -2.6763   14.6992  -17.1675 H       1  UNL1        0.0293
    132 H          -3.0802   13.8887  -18.6749 H       1  UNL1        0.0293
    133 H          -1.6199   13.4345  -17.7958 H       1  UNL1        0.0293
    134 H           5.7135    8.8407  -22.4323 H       1  UNL1        0.2098
@<TRIPOS>BOND
     1     2     3    1
     2     3     4    1
     3     4     5    1
     4     5     6    1
     5     6     7    1
     6     7     8    1
     7     2     8    1
     8     8     9    1
     9     9    10   ar
    10    10    11   ar
    11    11    12   ar
    12    12    13   ar
    13    13    14   ar
    14     9    14   ar
    15    13    15    1
    16    15    16   ar
    17    16    17   ar
    18    17    18   ar
    19    18    19   ar
    20    15    19   ar
    21    20    21    1
    22    21    22    1
    23    22    23    1
    24    23    24    1
    25    24    25   ar
    26    20    25    1
    27    25    26   ar
    28    26    27   ar
    29    27    28   ar
    30    24    28   ar
    31    27    29    1
    32    26    30    1
    33    30    31    3
    34     4    33    1
    35    33    34    1
    36    34    35    1
    37    35    36    1
    38    36    37    1
    39    37    38    1
    40    38    39   ar
    41    39    40   ar
    42    40    41   ar
    43    41    42   ar
    44    38    42   ar
    45    40    43    1
    46    43    44    1
    47    44    45    1
    48    44    46    1
    49    43    47    1
    50    47    48    2
    51    47    49   am
    52    49    50    1
    53    50    51    1
    54    51    52    1
    55    52    53    1
    56    49    53    1
    57    53    54    1
    58    54    55    2
    59    54    56   am
    60    56    57    1
    61    57    58    1
    62    58    59    1
    63    57    60    1
    64    60    61   ar
    65    61    62   ar
    66    62    63   ar
    67    63    64   ar
    68    64    65   ar
    69    60    65   ar
    70    63    66    1
    71    66    67   ar
    72    67    68   ar
    73    68    69   ar
    74    69    70   ar
    75    66    70   ar
    76    67    71    1
    77    51    72    1
    78     1    73    1
    79     1    74    1
    80     1    75    1
    81     3    77    1
    82     3    78    1
    83     5    79    1
    84     5    80    1
    85     6    81    1
    86     6    82    1
    87     7    83    1
    88     7    84    1
    89    11    85    1
    90    12    86    1
    91    21    87    1
    92    21    88    1
    93    22    89    1
    94    22    90    1
    95    23    91    1
    96    23    92    1
    97    29    93    1
    98    29    94    1
    99    32    95    1
   100    32    96    1
   101    32    97    1
   102    33    98    1
   103    33    99    1
   104    34   100    1
   105    34   101    1
   106    35   102    1
   107    35   103    1
   108    36   104    1
   109    36   105    1
   110    39   106    1
   111    43   107    1
   112    44   108    1
   113    45   109    1
   114    45   110    1
   115    45   111    1
   116    46   112    1
   117    46   113    1
   118    46   114    1
   119    50   115    1
   120    50   116    1
   121    51   117    1
   122    52   118    1
   123    52   119    1
   124    53   120    1
   125    56   121    1
   126    57   122    1
   127    58   123    1
   128    58   124    1
   129    59   125    1
   130    61   126    1
   131    62   127    1
   132    64   128    1
   133    65   129    1
   134    69   130    1
   135    71   131    1
   136    71   132    1
   137    71   133    1
   138    72   134    1
   139    20    32    1
   140    20    18    1
   141     2    76    1
   142     2     1    1
