@<TRIPOS>MOLECULE
*****
 134 142 0 0 0
SMALL
GASTEIGER

@<TRIPOS>ATOM
      1 C           9.1059   -1.0842  -13.4594 C.3     1  UNL1       -0.0452
      2 C           9.2559   -1.1731  -11.8783 C.3     1  UNL1        0.0361
      3 C           9.3604   -2.6913  -11.5170 C.3     1  UNL1        0.0173
      4 N          10.4995   -3.5246  -12.0383 N.3     1  UNL1       -0.3005
      5 C          11.5530   -3.5760  -11.0205 C.3     1  UNL1        0.0004
      6 C          11.8226   -2.2737  -10.1630 C.3     1  UNL1       -0.0243
      7 C          11.6492   -0.8192  -10.7111 C.3     1  UNL1        0.0164
      8 N          10.3005   -0.4081  -11.1042 N.pl3   1  UNL1       -0.2956
      9 C          10.0599    0.7580  -10.4538 C.ar    1  UNL1        0.2187
     10 N          10.8573    1.8108  -10.7420 N.ar    1  UNL1       -0.2227
     11 C          10.8150    2.8617   -9.9214 C.ar    1  UNL1        0.0333
     12 C          10.0430    2.8634   -8.7971 C.ar    1  UNL1       -0.0142
     13 C           9.3649    1.6892   -8.5364 C.ar    1  UNL1        0.1162
     14 N           9.3353    0.6394   -9.3560 N.ar    1  UNL1       -0.2111
     15 C           8.5310    1.5801   -7.3697 C.ar    1  UNL1        0.2206
     16 N           8.6499    0.6853   -6.3740 N.ar    1  UNL1       -0.0544
     17 O           7.5912    1.0279   -5.5102 O.2     1  UNL1       -0.3367
     18 C           6.9564    2.0847   -6.0997 C.ar    1  UNL1        0.2380
     19 N           7.5228    2.4740   -7.2128 N.ar    1  UNL1       -0.1893
     20 C           5.7018    2.6698   -5.5133 C.3     1  UNL1        0.0736
     21 C           5.9852    3.3117   -4.0936 C.3     1  UNL1       -0.0347
     22 C           6.8241    4.5792   -4.1579 C.3     1  UNL1       -0.0473
     23 C           6.0573    5.6458   -4.9054 C.3     1  UNL1       -0.0210
     24 C           5.4939    5.1294   -6.1740 C.ar    1  UNL1       -0.0030
     25 C           5.2298    3.8141   -6.5207 C.ar    1  UNL1       -0.0031
     26 C           4.7350    3.7999   -7.9311 C.ar    1  UNL1        0.0840
     27 C           4.6229    5.0982   -8.4580 C.ar    1  UNL1        0.0810
     28 S           5.1271    6.2738   -7.3403 S.2     1  UNL1       -0.0774
     29 N           4.2307    5.6623   -9.6217 N.pl3   1  UNL1       -0.3516
     30 C           4.4305    2.6320   -8.6948 C.1     1  UNL1        0.1019
     31 N           4.1500    1.6560   -9.3157 N.1     1  UNL1       -0.1908
     32 C           4.6811    1.5617   -5.2158 C.3     1  UNL1       -0.0469
     33 C          11.0918   -3.1430  -13.3531 C.3     1  UNL1       -0.0009
     34 C          11.8892   -1.8591  -13.1896 C.3     1  UNL1       -0.0371
     35 C          13.2839   -1.8194  -12.6463 C.3     1  UNL1       -0.0174
     36 C          14.1191   -2.5966  -13.5486 C.3     1  UNL1        0.0913
     37 O          14.2562   -1.8611  -14.7726 O.3     1  UNL1       -0.4743
     38 C          13.1165   -1.6393  -15.5097 C.ar    1  UNL1        0.2541
     39 C          13.1101   -1.8888  -16.8271 C.ar    1  UNL1        0.0895
     40 N          11.8492   -1.6214  -17.2974 N.ar    1  UNL1       -0.2358
     41 N          11.1890   -0.9885  -16.3348 N.ar    1  UNL1       -0.0614
     42 N          12.1212   -0.6981  -15.4489 N.ar    1  UNL1       -0.0917
     43 C          11.1831   -1.6588  -18.5946 C.3     1  UNL1        0.1326
     44 C          11.7883   -0.7045  -19.6534 C.3     1  UNL1       -0.0157
     45 C          13.2284   -1.0701  -19.9179 C.3     1  UNL1       -0.0603
     46 C          11.0493   -0.7379  -20.9976 C.3     1  UNL1       -0.0603
     47 C          10.9546   -3.0693  -19.1232 C.2     1  UNL1        0.2412
     48 O           9.8186   -3.3879  -19.4888 O.2     1  UNL1       -0.2732
     49 N          12.0300   -3.9222  -19.3140 N.am    1  UNL1       -0.2856
     50 C          13.2495   -3.9833  -18.5532 C.3     1  UNL1        0.0416
     51 C          14.2612   -4.7994  -19.3034 C.3     1  UNL1        0.0731
     52 C          13.3799   -5.7028  -20.1258 C.3     1  UNL1        0.0018
     53 C          12.1237   -4.8535  -20.4329 C.3     1  UNL1        0.1047
     54 C          10.8490   -5.6752  -20.5586 C.2     1  UNL1        0.2342
     55 O          10.2615   -5.7525  -21.6384 O.2     1  UNL1       -0.2738
     56 N          10.3777   -6.3516  -19.4664 N.am    1  UNL1       -0.3047
     57 CA         10.9307   -6.4014  -18.1083 C.3     1  UNL1        0.0714
     58 C          10.0171   -5.7793  -17.0460 C.3     1  UNL1        0.0667
     59 O           8.7897   -6.4849  -16.9330 O.3     1  UNL1       -0.3928
     60 C          11.3977   -7.7915  -17.7706 C.ar    1  UNL1       -0.0250
     61 C          12.7387   -8.0652  -17.4459 C.ar    1  UNL1       -0.0561
     62 C          13.1652   -9.3792  -17.2605 C.ar    1  UNL1       -0.0532
     63 C          12.2306  -10.4120  -17.2201 C.ar    1  UNL1       -0.0095
     64 C          10.8968  -10.1317  -17.5612 C.ar    1  UNL1       -0.0532
     65 C          10.4875   -8.8387  -17.8378 C.ar    1  UNL1       -0.0561
     66 C          12.6347  -11.7822  -16.9198 C.ar    1  UNL1        0.0417
     67 C          13.2168  -12.4153  -15.8152 C.ar    1  UNL1        0.0531
     68 N          13.3866  -13.7959  -15.9974 N.ar    1  UNL1       -0.2520
     69 C          12.9604  -14.1552  -17.1880 C.ar    1  UNL1        0.0655
     70 S          12.3581  -12.9221  -18.1849 S.2     1  UNL1       -0.0752
     71 C          13.6502  -11.8427  -14.4856 C.3     1  UNL1       -0.0212
     72 O          15.0489   -3.9492  -20.1378 O.3     1  UNL1       -0.3902
     73 H           8.5693   -1.9876  -13.7991 H       1  UNL1        0.0248
     74 H           9.9781   -1.0875  -14.1035 H       1  UNL1        0.0248
     75 H           8.5984   -0.2059  -13.8443 H       1  UNL1        0.0248
     76 H           8.2912   -0.7708  -11.5615 H       1  UNL1        0.0510
     77 H           9.3346   -2.7727  -10.4206 H       1  UNL1        0.0445
     78 H           8.4279   -3.1707  -11.8304 H       1  UNL1        0.0445
     79 H          11.3271   -4.3972  -10.3293 H       1  UNL1        0.0427
     80 H          12.4607   -3.9797  -11.5006 H       1  UNL1        0.0427
     81 H          11.2298   -2.3371   -9.2502 H       1  UNL1        0.0293
     82 H          12.8651   -2.3667   -9.8132 H       1  UNL1        0.0293
     83 H          12.2915   -0.1603  -10.0959 H       1  UNL1        0.0465
     84 H          12.1782   -0.4416  -11.5671 H       1  UNL1        0.0465
     85 H          11.4332    3.7081  -10.2027 H       1  UNL1        0.0831
     86 H           9.9663    3.7288   -8.1582 H       1  UNL1        0.0655
     87 H           6.4662    2.6049   -3.4041 H       1  UNL1        0.0278
     88 H           5.0208    3.5764   -3.6294 H       1  UNL1        0.0278
     89 H           7.0389    4.9588   -3.1530 H       1  UNL1        0.0269
     90 H           7.7837    4.3702   -4.6430 H       1  UNL1        0.0269
     91 H           5.2131    5.9973   -4.3019 H       1  UNL1        0.0318
     92 H           6.7250    6.4911   -5.0966 H       1  UNL1        0.0318
     93 H           3.8823    5.2251  -10.4643 H       1  UNL1        0.1428
     94 H           4.2722    6.6840   -9.6650 H       1  UNL1        0.1428
     95 H           4.7921    1.1971   -4.1789 H       1  UNL1        0.0243
     96 H           3.6588    1.9316   -5.3053 H       1  UNL1        0.0243
     97 H           4.8134    0.6749   -5.8422 H       1  UNL1        0.0243
     98 H          11.7307   -3.9313  -13.7589 H       1  UNL1        0.0427
     99 H          10.3245   -3.1136  -14.1378 H       1  UNL1        0.0427
    100 H          11.8540   -0.9445  -13.7316 H       1  UNL1        0.0279
    101 H          11.1830   -1.3270  -12.6549 H       1  UNL1        0.0279
    102 H          13.6718   -0.7892  -12.5710 H       1  UNL1        0.0298
    103 H          13.3959   -2.2443  -11.6719 H       1  UNL1        0.0298
    104 H          15.0527   -2.6718  -12.9706 H       1  UNL1        0.0697
    105 H          13.7253   -3.6165  -13.6306 H       1  UNL1        0.0697
    106 H          14.0346   -2.1154  -17.3046 H       1  UNL1        0.0881
    107 H          10.1607   -1.2694  -18.4119 H       1  UNL1        0.0644
    108 H          11.7577    0.3224  -19.2679 H       1  UNL1        0.0321
    109 H          13.2311   -2.0690  -20.3378 H       1  UNL1        0.0233
    110 H          13.7438   -0.4413  -20.6327 H       1  UNL1        0.0233
    111 H          13.8093   -1.0246  -19.0019 H       1  UNL1        0.0233
    112 H          10.0328   -0.3445  -20.9155 H       1  UNL1        0.0233
    113 H          11.5906   -0.1329  -21.7338 H       1  UNL1        0.0233
    114 H          10.9917   -1.7529  -21.4073 H       1  UNL1        0.0233
    115 H          13.0365   -4.3215  -17.5319 H       1  UNL1        0.0490
    116 H          13.6672   -3.0192  -18.6118 H       1  UNL1        0.0490
    117 H          14.9495   -5.2881  -18.6096 H       1  UNL1        0.0610
    118 H          13.8799   -6.0722  -21.0178 H       1  UNL1        0.0313
    119 H          13.1337   -6.5673  -19.5191 H       1  UNL1        0.0313
    120 H          12.2857   -4.2545  -21.3370 H       1  UNL1        0.0597
    121 H           9.5199   -6.8461  -19.6638 H       1  UNL1        0.1494
    122 HA         11.8209   -5.8068  -18.0674 H       1  UNL1        0.0571
    123 H1         10.5264   -5.7839  -16.0756 H       1  UNL1        0.0579
    124 H2          9.7806   -4.7398  -17.2862 H       1  UNL1        0.0579
    125 H           8.3979   -6.4854  -17.8227 H       1  UNL1        0.2095
    126 H          13.4720   -7.2666  -17.3541 H       1  UNL1        0.0621
    127 H          14.2285   -9.5954  -17.1913 H       1  UNL1        0.0624
    128 H          10.1530  -10.9185  -17.6519 H       1  UNL1        0.0624
    129 H           9.4480   -8.6462  -18.0867 H       1  UNL1        0.0621
    130 H          12.9755  -15.1672  -17.5661 H       1  UNL1        0.0907
    131 H          13.1074  -12.2997  -13.6462 H       1  UNL1        0.0293
    132 H          14.7172  -12.0246  -14.2944 H       1  UNL1        0.0293
    133 H          13.4913  -10.7626  -14.4228 H       1  UNL1        0.0293
    134 H          14.4626   -3.4272  -20.7112 H       1  UNL1        0.2098
@<TRIPOS>BOND
     1     2     3    1
     2     3     4    1
     3     4     5    1
     4     5     6    1
     5     6     7    1
     6     7     8    1
     7     2     8    1
     8     8     9    1
     9     9    10   ar
    10    10    11   ar
    11    11    12   ar
    12    12    13   ar
    13    13    14   ar
    14     9    14   ar
    15    13    15    1
    16    15    16   ar
    17    16    17   ar
    18    17    18   ar
    19    18    19   ar
    20    15    19   ar
    21    20    21    1
    22    21    22    1
    23    22    23    1
    24    23    24    1
    25    24    25   ar
    26    20    25    1
    27    25    26   ar
    28    26    27   ar
    29    27    28   ar
    30    24    28   ar
    31    27    29    1
    32    26    30    1
    33    30    31    3
    34     4    33    1
    35    33    34    1
    36    34    35    1
    37    35    36    1
    38    36    37    1
    39    37    38    1
    40    38    39   ar
    41    39    40   ar
    42    40    41   ar
    43    41    42   ar
    44    38    42   ar
    45    40    43    1
    46    43    44    1
    47    44    45    1
    48    44    46    1
    49    43    47    1
    50    47    48    2
    51    47    49   am
    52    49    50    1
    53    50    51    1
    54    51    52    1
    55    52    53    1
    56    49    53    1
    57    53    54    1
    58    54    55    2
    59    54    56   am
    60    56    57    1
    61    57    58    1
    62    58    59    1
    63    57    60    1
    64    60    61   ar
    65    61    62   ar
    66    62    63   ar
    67    63    64   ar
    68    64    65   ar
    69    60    65   ar
    70    63    66    1
    71    66    67   ar
    72    67    68   ar
    73    68    69   ar
    74    69    70   ar
    75    66    70   ar
    76    67    71    1
    77    51    72    1
    78     1    73    1
    79     1    74    1
    80     1    75    1
    81     3    77    1
    82     3    78    1
    83     5    79    1
    84     5    80    1
    85     6    81    1
    86     6    82    1
    87     7    83    1
    88     7    84    1
    89    11    85    1
    90    12    86    1
    91    21    87    1
    92    21    88    1
    93    22    89    1
    94    22    90    1
    95    23    91    1
    96    23    92    1
    97    29    93    1
    98    29    94    1
    99    32    95    1
   100    32    96    1
   101    32    97    1
   102    33    98    1
   103    33    99    1
   104    34   100    1
   105    34   101    1
   106    35   102    1
   107    35   103    1
   108    36   104    1
   109    36   105    1
   110    39   106    1
   111    43   107    1
   112    44   108    1
   113    45   109    1
   114    45   110    1
   115    45   111    1
   116    46   112    1
   117    46   113    1
   118    46   114    1
   119    50   115    1
   120    50   116    1
   121    51   117    1
   122    52   118    1
   123    52   119    1
   124    53   120    1
   125    56   121    1
   126    57   122    1
   127    58   123    1
   128    58   124    1
   129    59   125    1
   130    61   126    1
   131    62   127    1
   132    64   128    1
   133    65   129    1
   134    69   130    1
   135    71   131    1
   136    71   132    1
   137    71   133    1
   138    72   134    1
   139     2    76    1
   140     2     1    1
   141    20    32    1
   142    20    18    1
