@<TRIPOS>MOLECULE
*****
 134 142 0 0 0
SMALL
GASTEIGER

@<TRIPOS>ATOM
      1 C          15.8141    1.5195   -2.0259 C.3     1  UNL1       -0.0452
      2 C          14.6124    0.6782   -1.3951 C.3     1  UNL1        0.0361
      3 C          14.3193   -0.6104   -2.2338 C.3     1  UNL1        0.0173
      4 N          15.3538   -1.6800   -2.3893 N.3     1  UNL1       -0.3005
      5 C          15.1761   -2.6987   -1.3518 C.3     1  UNL1        0.0004
      6 C          14.7204   -2.2361    0.0916 C.3     1  UNL1       -0.0243
      7 C          15.1236   -0.8683    0.7331 C.3     1  UNL1        0.0164
      8 N          14.6108    0.3193    0.0669 N.pl3   1  UNL1       -0.2956
      9 C          14.0395    1.1071    1.0057 C.ar    1  UNL1        0.2187
     10 N          14.8068    1.6180    1.9881 N.ar    1  UNL1       -0.2227
     11 C          14.1745    2.2290    2.9934 C.ar    1  UNL1        0.0333
     12 C          12.8109    2.2838    3.0680 C.ar    1  UNL1       -0.0142
     13 C          12.1350    1.6270    2.0656 C.ar    1  UNL1        0.1162
     14 N          12.7229    1.0432    1.0260 N.ar    1  UNL1       -0.2111
     15 C          10.6993    1.5760    2.0419 C.ar    1  UNL1        0.2206
     16 N           9.9901    0.4378    2.0878 N.ar    1  UNL1       -0.0544
     17 O           8.6771    0.8835    2.0065 O.2     1  UNL1       -0.3367
     18 C           8.7306    2.2514    1.9035 C.ar    1  UNL1        0.2380
     19 N           9.9509    2.7240    1.9597 N.ar    1  UNL1       -0.1893
     20 C           7.4089    2.9694    1.8063 C.3     1  UNL1        0.0736
     21 C           6.6092    2.5937    3.1329 C.3     1  UNL1       -0.0347
     22 C           7.1120    3.3696    4.3506 C.3     1  UNL1       -0.0473
     23 C           6.8060    4.8351    4.1521 C.3     1  UNL1       -0.0210
     24 C           7.2782    5.3021    2.8281 C.ar    1  UNL1       -0.0030
     25 C           7.5661    4.5418    1.7067 C.ar    1  UNL1       -0.0031
     26 C           7.9707    5.4690    0.6118 C.ar    1  UNL1        0.0840
     27 C           7.9282    6.8127    1.0217 C.ar    1  UNL1        0.0810
     28 S           7.4353    6.9590    2.6407 S.2     1  UNL1       -0.0774
     29 N           8.1688    8.0214    0.4678 N.pl3   1  UNL1       -0.3516
     30 C           8.3439    5.0834   -0.7103 C.1     1  UNL1        0.1019
     31 N           8.6315    4.7548   -1.8186 N.1     1  UNL1       -0.1908
     32 C           6.6141    2.3818    0.6266 C.3     1  UNL1       -0.0469
     33 C          16.7615   -1.2106   -2.4227 C.3     1  UNL1       -0.0009
     34 C          17.1907   -0.8003   -1.0166 C.3     1  UNL1       -0.0371
     35 C          17.6017   -1.7750    0.0454 C.3     1  UNL1       -0.0174
     36 C          18.7752   -2.4827   -0.4408 C.3     1  UNL1        0.0913
     37 O          19.8765   -1.5701   -0.4286 O.3     1  UNL1       -0.4743
     38 C          19.8011   -0.4768   -1.2561 C.ar    1  UNL1        0.2541
     39 C          20.8777   -0.0997   -1.9561 C.ar    1  UNL1        0.0895
     40 N          20.5092    0.9735   -2.7379 N.ar    1  UNL1       -0.2358
     41 N          19.3406    1.4089   -2.2888 N.ar    1  UNL1       -0.0614
     42 N          19.1570    0.7275   -1.1797 N.ar    1  UNL1       -0.0917
     43 C          21.1544    1.8365   -3.7284 C.3     1  UNL1        0.1326
     44 C          22.3720    2.6207   -3.1696 C.3     1  UNL1       -0.0157
     45 C          23.4177    1.6426   -2.7182 C.3     1  UNL1       -0.0603
     46 C          23.0378    3.5377   -4.2042 C.3     1  UNL1       -0.0603
     47 C          21.4055    1.1447   -5.0824 C.2     1  UNL1        0.2412
     48 O          21.0252    1.6933   -6.1220 O.2     1  UNL1       -0.2732
     49 N          22.1929    0.0025   -5.1521 N.am    1  UNL1       -0.2856
     50 C          22.2756   -1.0369   -4.1680 C.3     1  UNL1        0.0416
     51 C          23.6253   -1.7027   -4.2206 C.3     1  UNL1        0.0731
     52 C          24.0058   -1.4568   -5.6556 C.3     1  UNL1        0.0018
     53 C          23.3530   -0.0981   -6.0302 C.3     1  UNL1        0.1047
     54 C          22.9143    0.0136   -7.4834 C.2     1  UNL1        0.2342
     55 O          23.4670    0.8075   -8.2451 O.2     1  UNL1       -0.2738
     56 N          21.9420   -0.8242   -7.9526 N.am    1  UNL1       -0.3047
     57 CA         21.1994   -1.8468   -7.2195 C.3     1  UNL1        0.0714
     58 C          19.7123   -1.4701   -7.0754 C.3     1  UNL1        0.0667
     59 O          19.0651   -1.5018   -8.3423 O.3     1  UNL1       -0.3928
     60 C          21.4790   -3.2268   -7.7690 C.ar    1  UNL1       -0.0250
     61 C          22.7479   -3.6000   -8.2439 C.ar    1  UNL1       -0.0561
     62 C          22.9437   -4.8438   -8.8371 C.ar    1  UNL1       -0.0532
     63 C          21.9202   -5.7881   -8.8343 C.ar    1  UNL1       -0.0095
     64 C          20.6604   -5.4218   -8.3496 C.ar    1  UNL1       -0.0532
     65 C          20.4551   -4.1720   -7.7967 C.ar    1  UNL1       -0.0561
     66 C          22.1262   -7.1129   -9.3984 C.ar    1  UNL1        0.0417
     67 C          22.9874   -8.1686   -9.0916 C.ar    1  UNL1        0.0531
     68 N          22.8095   -9.2831   -9.9209 N.ar    1  UNL1       -0.2520
     69 C          21.8649   -9.0459  -10.8049 C.ar    1  UNL1        0.0655
     70 S          21.1280   -7.5183  -10.7424 S.2     1  UNL1       -0.0752
     71 C          24.0321   -8.2687   -8.0073 C.3     1  UNL1       -0.0212
     72 O          24.5486   -1.1079   -3.3100 O.3     1  UNL1       -0.3902
     73 H          15.6379    1.6602   -3.1020 H       1  UNL1        0.0248
     74 H          16.8173    1.1117   -2.1046 H       1  UNL1        0.0248
     75 H          16.0543    2.4289   -1.4786 H       1  UNL1        0.0248
     76 H          13.7739    1.3646   -1.5365 H       1  UNL1        0.0510
     77 H          13.4153   -1.0707   -1.8072 H       1  UNL1        0.0445
     78 H          14.0072   -0.2961   -3.2336 H       1  UNL1        0.0445
     79 H          14.4467   -3.4340   -1.7138 H       1  UNL1        0.0427
     80 H          16.0845   -3.3248   -1.3437 H       1  UNL1        0.0427
     81 H          13.6324   -2.2930    0.1366 H       1  UNL1        0.0293
     82 H          15.0641   -3.0300    0.7756 H       1  UNL1        0.0293
     83 H          15.0519   -0.9780    1.8305 H       1  UNL1        0.0465
     84 H          16.1419   -0.5550    0.8767 H       1  UNL1        0.0465
     85 H          14.8116    2.6853    3.7440 H       1  UNL1        0.0831
     86 H          12.2970    2.8066    3.8568 H       1  UNL1        0.0655
     87 H           6.6728    1.5208    3.3638 H       1  UNL1        0.0278
     88 H           5.5397    2.8083    2.9989 H       1  UNL1        0.0278
     89 H           6.6179    3.0354    5.2686 H       1  UNL1        0.0269
     90 H           8.1898    3.2181    4.4859 H       1  UNL1        0.0269
     91 H           5.7228    4.9994    4.1990 H       1  UNL1        0.0318
     92 H           7.2818    5.4158    4.9471 H       1  UNL1        0.0318
     93 H           8.4892    8.2516   -0.4634 H       1  UNL1        0.1428
     94 H           8.0499    8.8309    1.0825 H       1  UNL1        0.1428
     95 H           6.0002    3.1407    0.1380 H       1  UNL1        0.0243
     96 H           7.2746    1.9329   -0.1241 H       1  UNL1        0.0243
     97 H           5.9371    1.5806    0.9567 H       1  UNL1        0.0243
     98 H          17.4517   -1.9555   -2.8234 H       1  UNL1        0.0427
     99 H          16.8428   -0.4373   -3.1987 H       1  UNL1        0.0427
    100 H          17.6174    0.1058   -0.6424 H       1  UNL1        0.0279
    101 H          16.3565   -0.2348   -0.7939 H       1  UNL1        0.0279
    102 H          17.8335   -1.2729    1.0005 H       1  UNL1        0.0298
    103 H          16.8696   -2.5167    0.2808 H       1  UNL1        0.0298
    104 H          18.8703   -3.2923    0.2989 H       1  UNL1        0.0697
    105 H          18.5476   -2.9619   -1.3999 H       1  UNL1        0.0697
    106 H          21.8143   -0.5841   -1.7651 H       1  UNL1        0.0881
    107 H          20.4084    2.6218   -3.9636 H       1  UNL1        0.0644
    108 H          22.0653    3.2234   -2.3058 H       1  UNL1        0.0321
    109 H          23.6801    1.1188   -3.6214 H       1  UNL1        0.0233
    110 H          24.3374    2.0552   -2.3241 H       1  UNL1        0.0233
    111 H          23.0404    0.9602   -1.9657 H       1  UNL1        0.0233
    112 H          22.3958    4.3768   -4.4790 H       1  UNL1        0.0233
    113 H          23.9746    3.9387   -3.7987 H       1  UNL1        0.0233
    114 H          23.3044    2.9969   -5.1195 H       1  UNL1        0.0233
    115 H          21.3950   -1.6878   -4.2095 H       1  UNL1        0.0490
    116 H          22.3524   -0.4968   -3.2915 H       1  UNL1        0.0490
    117 H          23.5478   -2.7463   -3.9118 H       1  UNL1        0.0610
    118 H          25.0796   -1.4820   -5.8275 H       1  UNL1        0.0313
    119 H          23.5662   -2.2821   -6.1992 H       1  UNL1        0.0313
    120 H          24.0368    0.7238   -5.7878 H       1  UNL1        0.0597
    121 H          21.7237   -0.6810   -8.9282 H       1  UNL1        0.1494
    122 HA         21.5504   -1.9221   -6.2079 H       1  UNL1        0.0571
    123 H1         19.2066   -2.1698   -6.3983 H       1  UNL1        0.0579
    124 H2         19.5736   -0.4774   -6.6436 H       1  UNL1        0.0579
    125 H          19.5753   -0.9097   -8.9210 H       1  UNL1        0.2095
    126 H          23.6016   -2.9281   -8.1854 H       1  UNL1        0.0621
    127 H          23.8781   -5.0435   -9.3544 H       1  UNL1        0.0624
    128 H          19.7949   -6.0738   -8.4363 H       1  UNL1        0.0624
    129 H          19.4600   -3.9498   -7.4238 H       1  UNL1        0.0621
    130 H          21.5389   -9.7499  -11.5566 H       1  UNL1        0.0907
    131 H          23.8224   -9.0946   -7.3141 H       1  UNL1        0.0293
    132 H          25.0304   -8.4581   -8.4241 H       1  UNL1        0.0293
    133 H          24.1013   -7.3562   -7.4074 H       1  UNL1        0.0293
    134 H          24.7964   -0.2206   -3.6112 H       1  UNL1        0.2098
@<TRIPOS>BOND
     1     2     3    1
     2     3     4    1
     3     4     5    1
     4     5     6    1
     5     6     7    1
     6     7     8    1
     7     2     8    1
     8     8     9    1
     9     9    10   ar
    10    10    11   ar
    11    11    12   ar
    12    12    13   ar
    13    13    14   ar
    14     9    14   ar
    15    13    15    1
    16    15    16   ar
    17    16    17   ar
    18    17    18   ar
    19    18    19   ar
    20    15    19   ar
    21    20    21    1
    22    21    22    1
    23    22    23    1
    24    23    24    1
    25    24    25   ar
    26    20    25    1
    27    25    26   ar
    28    26    27   ar
    29    27    28   ar
    30    24    28   ar
    31    27    29    1
    32    26    30    1
    33    30    31    3
    34     4    33    1
    35    33    34    1
    36    34    35    1
    37    35    36    1
    38    36    37    1
    39    37    38    1
    40    38    39   ar
    41    39    40   ar
    42    40    41   ar
    43    41    42   ar
    44    38    42   ar
    45    40    43    1
    46    43    44    1
    47    44    45    1
    48    44    46    1
    49    43    47    1
    50    47    48    2
    51    47    49   am
    52    49    50    1
    53    50    51    1
    54    51    52    1
    55    52    53    1
    56    49    53    1
    57    53    54    1
    58    54    55    2
    59    54    56   am
    60    56    57    1
    61    57    58    1
    62    58    59    1
    63    57    60    1
    64    60    61   ar
    65    61    62   ar
    66    62    63   ar
    67    63    64   ar
    68    64    65   ar
    69    60    65   ar
    70    63    66    1
    71    66    67   ar
    72    67    68   ar
    73    68    69   ar
    74    69    70   ar
    75    66    70   ar
    76    67    71    1
    77    51    72    1
    78     1    73    1
    79     1    74    1
    80     1    75    1
    81     3    77    1
    82     3    78    1
    83     5    79    1
    84     5    80    1
    85     6    81    1
    86     6    82    1
    87     7    83    1
    88     7    84    1
    89    11    85    1
    90    12    86    1
    91    21    87    1
    92    21    88    1
    93    22    89    1
    94    22    90    1
    95    23    91    1
    96    23    92    1
    97    29    93    1
    98    29    94    1
    99    32    95    1
   100    32    96    1
   101    32    97    1
   102    33    98    1
   103    33    99    1
   104    34   100    1
   105    34   101    1
   106    35   102    1
   107    35   103    1
   108    36   104    1
   109    36   105    1
   110    39   106    1
   111    43   107    1
   112    44   108    1
   113    45   109    1
   114    45   110    1
   115    45   111    1
   116    46   112    1
   117    46   113    1
   118    46   114    1
   119    50   115    1
   120    50   116    1
   121    51   117    1
   122    52   118    1
   123    52   119    1
   124    53   120    1
   125    56   121    1
   126    57   122    1
   127    58   123    1
   128    58   124    1
   129    59   125    1
   130    61   126    1
   131    62   127    1
   132    64   128    1
   133    65   129    1
   134    69   130    1
   135    71   131    1
   136    71   132    1
   137    71   133    1
   138    72   134    1
   139    20    32    1
   140    20    18    1
   141     2    76    1
   142     2     1    1
