@<TRIPOS>MOLECULE
*****
 134 142 0 0 0
SMALL
GASTEIGER

@<TRIPOS>ATOM
      1 C           8.3737    3.8093  -13.0824 C.3     1  UNL1       -0.0452
      2 C           6.9990    3.3603  -12.4315 C.3     1  UNL1        0.0361
      3 C           5.8694    4.4788  -12.4665 C.3     1  UNL1        0.0173
      4 N           5.3506    5.0841  -13.7429 N.3     1  UNL1       -0.3005
      5 C           4.2068    4.2958  -14.2352 C.3     1  UNL1        0.0004
      6 C           4.1997    2.7178  -14.0117 C.3     1  UNL1       -0.0243
      7 C           5.4929    1.8208  -14.0056 C.3     1  UNL1        0.0164
      8 N           6.3944    2.0745  -12.8977 N.pl3   1  UNL1       -0.2956
      9 C           6.6875    0.8992  -12.3069 C.ar    1  UNL1        0.2187
     10 N           7.3126   -0.0585  -13.0178 N.ar    1  UNL1       -0.2227
     11 C           7.4035   -1.2628  -12.4517 C.ar    1  UNL1        0.0333
     12 C           6.8338   -1.5372  -11.2419 C.ar    1  UNL1       -0.0142
     13 C           6.1176   -0.5085  -10.6743 C.ar    1  UNL1        0.1162
     14 N           6.0452    0.7171  -11.1719 N.ar    1  UNL1       -0.2111
     15 C           5.4721   -0.6763   -9.4078 C.ar    1  UNL1        0.2206
     16 N           4.1478   -0.6142   -9.2031 N.ar    1  UNL1       -0.0544
     17 O           4.0365   -0.8672   -7.8360 O.2     1  UNL1       -0.3367
     18 C           5.3177   -1.0170   -7.3621 C.ar    1  UNL1        0.2380
     19 N           6.2245   -0.9485   -8.3000 N.ar    1  UNL1       -0.1893
     20 C           5.4957   -1.3190   -5.8985 C.3     1  UNL1        0.0736
     21 C           4.7059   -2.6753   -5.6226 C.3     1  UNL1       -0.0347
     22 C           5.4529   -3.9029   -6.1466 C.3     1  UNL1       -0.0473
     23 C           6.7383   -4.0645   -5.3681 C.3     1  UNL1       -0.0210
     24 C           7.4993   -2.7953   -5.3229 C.ar    1  UNL1       -0.0030
     25 C           7.0273   -1.5096   -5.5250 C.ar    1  UNL1       -0.0031
     26 C           8.1739   -0.5669   -5.3655 C.ar    1  UNL1        0.0840
     27 C           9.3602   -1.2387   -5.0273 C.ar    1  UNL1        0.0810
     28 S           9.1234   -2.9180   -4.9318 S.2     1  UNL1       -0.0774
     29 N          10.6401   -0.9030   -4.7537 N.pl3   1  UNL1       -0.3516
     30 C           8.1149    0.8554   -5.5110 C.1     1  UNL1        0.1019
     31 N           8.0458    2.0360   -5.6037 N.1     1  UNL1       -0.1908
     32 C           4.8070   -0.2228   -5.0675 C.3     1  UNL1       -0.0469
     33 C           6.3621    5.2502  -14.8221 C.3     1  UNL1       -0.0009
     34 C           6.6434    3.8827  -15.3882 C.3     1  UNL1       -0.0371
     35 C           5.8105    3.1254  -16.3786 C.3     1  UNL1       -0.0174
     36 C           5.7965    3.8970  -17.6065 C.3     1  UNL1        0.0913
     37 O           7.0943    3.7554  -18.2034 O.3     1  UNL1       -0.4743
     38 C           8.1636    4.2787  -17.5168 C.ar    1  UNL1        0.2541
     39 C           9.0148    5.0972  -18.1421 C.ar    1  UNL1        0.0895
     40 N           9.8967    5.5927  -17.1915 N.ar    1  UNL1       -0.2358
     41 N           9.7677    4.8199  -16.1135 N.ar    1  UNL1       -0.0614
     42 N           8.9783    3.8311  -16.5085 N.ar    1  UNL1       -0.0917
     43 C          11.0145    6.5704  -17.1855 C.3     1  UNL1        0.1326
     44 C          12.1749    6.1538  -18.1402 C.3     1  UNL1       -0.0157
     45 C          11.6807    6.1205  -19.5609 C.3     1  UNL1       -0.0603
     46 C          13.3634    7.1233  -18.1246 C.3     1  UNL1       -0.0603
     47 C          10.6027    8.0802  -17.3362 C.2     1  UNL1        0.2412
     48 O          11.0578    8.9272  -16.5623 O.2     1  UNL1       -0.2732
     49 N           9.8299    8.4778  -18.4252 N.am    1  UNL1       -0.2856
     50 C           8.8635    7.6277  -19.0072 C.3     1  UNL1        0.0416
     51 C           8.6411    7.9316  -20.4578 C.3     1  UNL1        0.0731
     52 C           9.0256    9.3865  -20.4864 C.3     1  UNL1        0.0018
     53 C          10.1311    9.5367  -19.3899 C.3     1  UNL1        0.1047
     54 C          10.1095   10.8854  -18.6978 C.2     1  UNL1        0.2342
     55 O          11.0340   11.6830  -18.8576 O.2     1  UNL1       -0.2738
     56 N           9.0152   11.2392  -17.9569 N.am    1  UNL1       -0.3047
     57 CA          7.8063   10.4570  -17.6756 C.3     1  UNL1        0.0714
     58 C           7.6625   10.0768  -16.1998 C.3     1  UNL1        0.0667
     59 O           7.5096   11.2275  -15.3807 O.3     1  UNL1       -0.3928
     60 C           6.5789   11.0912  -18.2730 C.ar    1  UNL1       -0.0250
     61 C           5.8011   10.4295  -19.2426 C.ar    1  UNL1       -0.0561
     62 C           4.7258   11.0749  -19.8491 C.ar    1  UNL1       -0.0532
     63 C           4.3041   12.3133  -19.3719 C.ar    1  UNL1       -0.0095
     64 C           5.0966   12.9753  -18.4178 C.ar    1  UNL1       -0.0532
     65 C           6.2249   12.3750  -17.8828 C.ar    1  UNL1       -0.0561
     66 C           3.1129   12.9565  -19.9195 C.ar    1  UNL1        0.0417
     67 C           1.7598   12.6067  -20.0070 C.ar    1  UNL1        0.0531
     68 N           0.9779   13.5820  -20.6436 N.ar    1  UNL1       -0.2520
     69 C           1.7264   14.5976  -21.0126 C.ar    1  UNL1        0.0655
     70 S           3.3822   14.4903  -20.6617 S.2     1  UNL1       -0.0752
     71 C           1.0414   11.3729  -19.5111 C.3     1  UNL1       -0.0212
     72 O           9.4771    7.1367  -21.2996 O.3     1  UNL1       -0.3902
     73 H           9.2700    3.4345  -12.5902 H       1  UNL1        0.0248
     74 H           8.4614    4.9048  -13.1196 H       1  UNL1        0.0248
     75 H           8.5840    3.4397  -14.0781 H       1  UNL1        0.0248
     76 H           7.2771    3.2368  -11.3803 H       1  UNL1        0.0510
     77 H           5.0003    4.0526  -11.9399 H       1  UNL1        0.0445
     78 H           6.1843    5.3008  -11.8180 H       1  UNL1        0.0445
     79 H           3.2898    4.7022  -13.7914 H       1  UNL1        0.0427
     80 H           4.0394    4.5831  -15.2885 H       1  UNL1        0.0427
     81 H           3.6772    2.5180  -13.0753 H       1  UNL1        0.0293
     82 H           3.5282    2.3121  -14.7873 H       1  UNL1        0.0293
     83 H           5.1792    0.7907  -14.2522 H       1  UNL1        0.0465
     84 H           6.2163    1.7776  -14.8066 H       1  UNL1        0.0465
     85 H           7.9624   -2.0072  -13.0079 H       1  UNL1        0.0831
     86 H           6.9411   -2.4912  -10.7546 H       1  UNL1        0.0655
     87 H           3.6999   -2.6659   -6.0640 H       1  UNL1        0.0278
     88 H           4.5590   -2.8092   -4.5412 H       1  UNL1        0.0278
     89 H           4.8596   -4.8142   -6.0184 H       1  UNL1        0.0269
     90 H           5.6635   -3.7974   -7.2174 H       1  UNL1        0.0269
     91 H           6.5162   -4.3545   -4.3343 H       1  UNL1        0.0318
     92 H           7.3435   -4.8506   -5.8284 H       1  UNL1        0.0318
     93 H          11.0801    0.0076   -4.7464 H       1  UNL1        0.1428
     94 H          11.2764   -1.6781   -4.5502 H       1  UNL1        0.1428
     95 H           5.5202    0.4621   -4.6096 H       1  UNL1        0.0243
     96 H           4.1104    0.3782   -5.6657 H       1  UNL1        0.0243
     97 H           4.2158   -0.6553   -4.2525 H       1  UNL1        0.0243
     98 H           6.0481    5.9251  -15.6211 H       1  UNL1        0.0427
     99 H           7.2380    5.7713  -14.4174 H       1  UNL1        0.0427
    100 H           7.5788    3.4140  -15.5061 H       1  UNL1        0.0279
    101 H           6.6492    3.4125  -14.4747 H       1  UNL1        0.0279
    102 H           6.2222    2.1227  -16.5912 H       1  UNL1        0.0298
    103 H           4.7952    2.9629  -16.0886 H       1  UNL1        0.0298
    104 H           4.9962    3.3918  -18.1697 H       1  UNL1        0.0697
    105 H           5.4481    4.9135  -17.3848 H       1  UNL1        0.0697
    106 H           8.9099    5.2565  -19.1997 H       1  UNL1        0.0881
    107 H          11.4447    6.5046  -16.1676 H       1  UNL1        0.0644
    108 H          12.5295    5.1498  -17.8763 H       1  UNL1        0.0321
    109 H          11.3970    7.1428  -19.7699 H       1  UNL1        0.0233
    110 H          12.3975    5.8452  -20.3244 H       1  UNL1        0.0233
    111 H          10.8457    5.4384  -19.6783 H       1  UNL1        0.0233
    112 H          13.8915    7.1055  -17.1700 H       1  UNL1        0.0233
    113 H          14.0733    6.8546  -18.9170 H       1  UNL1        0.0233
    114 H          13.0515    8.1544  -18.3291 H       1  UNL1        0.0233
    115 H           7.9851    7.5281  -18.3600 H       1  UNL1        0.0490
    116 H           9.4697    6.7957  -19.0672 H       1  UNL1        0.0490
    117 H           7.6212    7.6684  -20.7410 H       1  UNL1        0.0610
    118 H           9.3335    9.7143  -21.4765 H       1  UNL1        0.0313
    119 H           8.1353    9.9485  -20.2284 H       1  UNL1        0.0313
    120 H          11.1167    9.3468  -19.8303 H       1  UNL1        0.0597
    121 H           9.1005   12.1637  -17.5608 H       1  UNL1        0.1494
    122 HA          7.8675    9.5167  -18.1795 H       1  UNL1        0.0571
    123 H1          6.7912    9.4247  -16.0714 H       1  UNL1        0.0579
    124 H2          8.5435    9.5311  -15.8498 H       1  UNL1        0.0579
    125 H           8.2770   11.7938  -15.5687 H       1  UNL1        0.2095
    126 H           6.0263    9.4111  -19.5519 H       1  UNL1        0.0621
    127 H           4.2461   10.6262  -20.7156 H       1  UNL1        0.0624
    128 H           4.8706   13.9863  -18.0902 H       1  UNL1        0.0624
    129 H           6.8116   12.9016  -17.1360 H       1  UNL1        0.0621
    130 H           1.3600   15.4776  -21.5212 H       1  UNL1        0.0907
    131 H           0.2556   11.6215  -18.7838 H       1  UNL1        0.0293
    132 H           0.5408   10.8377  -20.3303 H       1  UNL1        0.0293
    133 H           1.7157   10.6618  -19.0256 H       1  UNL1        0.0293
    134 H          10.4036    7.4120  -21.2156 H       1  UNL1        0.2098
@<TRIPOS>BOND
     1     2     3    1
     2     3     4    1
     3     4     5    1
     4     5     6    1
     5     6     7    1
     6     7     8    1
     7     2     8    1
     8     8     9    1
     9     9    10   ar
    10    10    11   ar
    11    11    12   ar
    12    12    13   ar
    13    13    14   ar
    14     9    14   ar
    15    13    15    1
    16    15    16   ar
    17    16    17   ar
    18    17    18   ar
    19    18    19   ar
    20    15    19   ar
    21    20    21    1
    22    21    22    1
    23    22    23    1
    24    23    24    1
    25    24    25   ar
    26    20    25    1
    27    25    26   ar
    28    26    27   ar
    29    27    28   ar
    30    24    28   ar
    31    27    29    1
    32    26    30    1
    33    30    31    3
    34     4    33    1
    35    33    34    1
    36    34    35    1
    37    35    36    1
    38    36    37    1
    39    37    38    1
    40    38    39   ar
    41    39    40   ar
    42    40    41   ar
    43    41    42   ar
    44    38    42   ar
    45    40    43    1
    46    43    44    1
    47    44    45    1
    48    44    46    1
    49    43    47    1
    50    47    48    2
    51    47    49   am
    52    49    50    1
    53    50    51    1
    54    51    52    1
    55    52    53    1
    56    49    53    1
    57    53    54    1
    58    54    55    2
    59    54    56   am
    60    56    57    1
    61    57    58    1
    62    58    59    1
    63    57    60    1
    64    60    61   ar
    65    61    62   ar
    66    62    63   ar
    67    63    64   ar
    68    64    65   ar
    69    60    65   ar
    70    63    66    1
    71    66    67   ar
    72    67    68   ar
    73    68    69   ar
    74    69    70   ar
    75    66    70   ar
    76    67    71    1
    77    51    72    1
    78     1    73    1
    79     1    74    1
    80     1    75    1
    81     3    77    1
    82     3    78    1
    83     5    79    1
    84     5    80    1
    85     6    81    1
    86     6    82    1
    87     7    83    1
    88     7    84    1
    89    11    85    1
    90    12    86    1
    91    21    87    1
    92    21    88    1
    93    22    89    1
    94    22    90    1
    95    23    91    1
    96    23    92    1
    97    29    93    1
    98    29    94    1
    99    32    95    1
   100    32    96    1
   101    32    97    1
   102    33    98    1
   103    33    99    1
   104    34   100    1
   105    34   101    1
   106    35   102    1
   107    35   103    1
   108    36   104    1
   109    36   105    1
   110    39   106    1
   111    43   107    1
   112    44   108    1
   113    45   109    1
   114    45   110    1
   115    45   111    1
   116    46   112    1
   117    46   113    1
   118    46   114    1
   119    50   115    1
   120    50   116    1
   121    51   117    1
   122    52   118    1
   123    52   119    1
   124    53   120    1
   125    56   121    1
   126    57   122    1
   127    58   123    1
   128    58   124    1
   129    59   125    1
   130    61   126    1
   131    62   127    1
   132    64   128    1
   133    65   129    1
   134    69   130    1
   135    71   131    1
   136    71   132    1
   137    71   133    1
   138    72   134    1
   139    20    32    1
   140    20    18    1
   141     2    76    1
   142     2     1    1
