@<TRIPOS>MOLECULE
*****
 134 142 0 0 0
SMALL
GASTEIGER

@<TRIPOS>ATOM
      1 C          13.9271   -2.0499   -7.6794 C.3     1  UNL1       -0.0452
      2 C          13.1909   -2.0929   -6.2818 C.3     1  UNL1        0.0361
      3 C          12.9748   -3.5882   -5.7930 C.3     1  UNL1        0.0173
      4 N          14.1143   -4.5503   -5.5562 N.3     1  UNL1       -0.3005
      5 C          14.5507   -4.4570   -4.1522 C.3     1  UNL1        0.0004
      6 C          14.5178   -3.0437   -3.4279 C.3     1  UNL1       -0.0243
      7 C          14.7652   -1.6786   -4.1579 C.3     1  UNL1        0.0164
      8 N          13.7469   -1.3092   -5.1306 N.pl3   1  UNL1       -0.2956
      9 C          13.3955   -0.0263   -4.8841 C.ar    1  UNL1        0.2187
     10 N          14.3558    0.9226   -4.9061 N.ar    1  UNL1       -0.2227
     11 C          14.0638    2.1046   -4.3600 C.ar    1  UNL1        0.0333
     12 C          12.8679    2.3389   -3.7509 C.ar    1  UNL1       -0.0142
     13 C          12.0143    1.2591   -3.6903 C.ar    1  UNL1        0.1162
     14 N          12.2355    0.0852   -4.2692 N.ar    1  UNL1       -0.2111
     15 C          10.7337    1.3908   -3.0682 C.ar    1  UNL1        0.2206
     16 N          10.2820    0.6866   -2.0185 N.ar    1  UNL1       -0.0544
     17 O           9.0024    1.2184   -1.8176 O.2     1  UNL1       -0.3367
     18 C           8.8281    2.1560   -2.7991 C.ar    1  UNL1        0.2380
     19 N           9.8787    2.3258   -3.5534 N.ar    1  UNL1       -0.1893
     20 C           7.4995    2.8318   -2.9573 C.3     1  UNL1        0.0736
     21 C           7.1655    3.6357   -1.6327 C.3     1  UNL1       -0.0347
     22 C           8.0916    4.8349   -1.4246 C.3     1  UNL1       -0.0473
     23 C           7.8648    5.8439   -2.5280 C.3     1  UNL1       -0.0210
     24 C           7.8555    5.1993   -3.8620 C.ar    1  UNL1       -0.0030
     25 C           7.6343    3.8648   -4.1680 C.ar    1  UNL1       -0.0031
     26 C           7.7854    3.7043   -5.6451 C.ar    1  UNL1        0.0840
     27 C           8.0505    4.9281   -6.2834 C.ar    1  UNL1        0.0810
     28 S           8.1511    6.2057   -5.1692 S.2     1  UNL1       -0.0774
     29 N           8.2558    5.3562   -7.5488 N.pl3   1  UNL1       -0.3516
     30 C           7.7008    2.4727   -6.3611 C.1     1  UNL1        0.1019
     31 N           7.5947    1.4465   -6.9534 N.1     1  UNL1       -0.1908
     32 C           6.4309    1.7299   -3.0939 C.3     1  UNL1       -0.0469
     33 C          15.2950   -4.4225   -6.4561 C.3     1  UNL1       -0.0009
     34 C          16.0319   -3.1685   -6.0621 C.3     1  UNL1       -0.0371
     35 C          17.0153   -3.0466   -4.9316 C.3     1  UNL1       -0.0174
     36 C          18.1313   -3.9302   -5.2388 C.3     1  UNL1        0.0913
     37 O          18.8864   -3.3491   -6.3180 O.3     1  UNL1       -0.4743
     38 C          18.2283   -3.1806   -7.5113 C.ar    1  UNL1        0.2541
     39 C          18.7120   -3.7006   -8.6500 C.ar    1  UNL1        0.0895
     40 N          17.7712   -3.4880   -9.6368 N.ar    1  UNL1       -0.2358
     41 N          16.9001   -2.6037   -9.1487 N.ar    1  UNL1       -0.0614
     42 N          17.4571   -2.1716   -8.0234 N.ar    1  UNL1       -0.0917
     43 C          17.6539   -3.7759  -11.0765 C.3     1  UNL1        0.1326
     44 C          18.7215   -3.0565  -11.9483 C.3     1  UNL1       -0.0157
     45 C          20.1078   -3.5094  -11.5565 C.3     1  UNL1       -0.0603
     46 C          18.5682   -3.3175  -13.4539 C.3     1  UNL1       -0.0603
     47 C          17.5008   -5.2630  -11.4369 C.2     1  UNL1        0.2412
     48 O          16.5939   -5.6127  -12.1983 O.2     1  UNL1       -0.2732
     49 N          18.4586   -6.1701  -11.0153 N.am    1  UNL1       -0.2856
     50 C          19.2178   -6.0707   -9.8126 C.3     1  UNL1        0.0416
     51 C          20.4021   -6.9846   -9.8677 C.3     1  UNL1        0.0731
     52 C          19.9115   -8.0431  -10.8204 C.3     1  UNL1        0.0018
     53 C          18.9721   -7.2882  -11.8002 C.3     1  UNL1        0.1047
     54 C          17.8291   -8.1398  -12.3239 C.2     1  UNL1        0.2342
     55 O          17.7766   -8.4496  -13.5148 O.2     1  UNL1       -0.2738
     56 N          16.8818   -8.5986  -11.4511 N.am    1  UNL1       -0.3047
     57 CA         16.7796   -8.3803  -10.0023 C.3     1  UNL1        0.0714
     58 C          15.5355   -7.5882   -9.5915 C.3     1  UNL1        0.0667
     59 O          14.3444   -8.2934   -9.9082 O.3     1  UNL1       -0.3928
     60 C          16.9677   -9.6705   -9.2501 C.ar    1  UNL1       -0.0250
     61 C          17.9881   -9.8296   -8.2936 C.ar    1  UNL1       -0.0561
     62 C          18.2367  -11.0810   -7.7295 C.ar    1  UNL1       -0.0532
     63 C          17.3645  -12.1390   -7.9811 C.ar    1  UNL1       -0.0095
     64 C          16.3534  -11.9712   -8.9419 C.ar    1  UNL1       -0.0532
     65 C          16.1572  -10.7528   -9.5675 C.ar    1  UNL1       -0.0561
     66 C          17.5345  -13.4383   -7.3391 C.ar    1  UNL1        0.0417
     67 C          17.4491  -13.9018   -6.0221 C.ar    1  UNL1        0.0531
     68 N          17.6189  -15.2896   -5.9137 N.ar    1  UNL1       -0.2520
     69 C          17.8414  -15.8162   -7.0973 C.ar    1  UNL1        0.0655
     70 S          17.9090  -14.7404   -8.4077 S.2     1  UNL1       -0.0752
     71 C          17.1720  -13.1478   -4.7441 C.3     1  UNL1       -0.0212
     72 O          21.5335   -6.2898  -10.3926 O.3     1  UNL1       -0.3902
     73 H          13.4929   -1.4252   -8.4597 H       1  UNL1        0.0248
     74 H          13.9119   -3.0486   -8.1341 H       1  UNL1        0.0248
     75 H          14.9449   -1.6715   -7.6634 H       1  UNL1        0.0248
     76 H          12.2125   -1.6674   -6.5251 H       1  UNL1        0.0510
     77 H          12.4082   -3.5232   -4.8513 H       1  UNL1        0.0445
     78 H          12.2768   -4.0698   -6.4833 H       1  UNL1        0.0445
     79 H          13.9502   -5.1559   -3.5579 H       1  UNL1        0.0427
     80 H          15.5345   -4.9533   -4.0787 H       1  UNL1        0.0427
     81 H          13.5584   -2.9520   -2.9170 H       1  UNL1        0.0293
     82 H          15.2545   -3.1107   -2.6095 H       1  UNL1        0.0293
     83 H          15.0769   -0.9552   -3.3830 H       1  UNL1        0.0465
     84 H          15.6552   -1.4425   -4.7230 H       1  UNL1        0.0465
     85 H          14.8370    2.8620   -4.4252 H       1  UNL1        0.0831
     86 H          12.6022    3.3032   -3.3492 H       1  UNL1        0.0655
     87 H           7.2089    2.9994   -0.7391 H       1  UNL1        0.0278
     88 H           6.1336    4.0160   -1.6888 H       1  UNL1        0.0278
     89 H           7.8957    5.3294   -0.4673 H       1  UNL1        0.0269
     90 H           9.1380    4.5083   -1.4112 H       1  UNL1        0.0269
     91 H           6.8927    6.3324   -2.3986 H       1  UNL1        0.0318
     92 H           8.6461    6.6092   -2.4778 H       1  UNL1        0.0318
     93 H           8.2568    4.8315   -8.4135 H       1  UNL1        0.1428
     94 H           8.4311    6.3575   -7.6651 H       1  UNL1        0.1428
     95 H           5.5844    1.8967   -2.4151 H       1  UNL1        0.0243
     96 H           6.0423    1.6417   -4.1061 H       1  UNL1        0.0243
     97 H           6.8187    0.7407   -2.8047 H       1  UNL1        0.0243
     98 H          15.9706   -5.2791   -6.4060 H       1  UNL1        0.0427
     99 H          14.9881   -4.4698   -7.5068 H       1  UNL1        0.0427
    100 H          16.2964   -2.3578   -6.6815 H       1  UNL1        0.0279
    101 H          15.1847   -2.6051   -5.9049 H       1  UNL1        0.0279
    102 H          17.3918   -2.0162   -4.8105 H       1  UNL1        0.0298
    103 H          16.6333   -3.3261   -3.9699 H       1  UNL1        0.0298
    104 H          18.6790   -3.9445   -4.2846 H       1  UNL1        0.0697
    105 H          17.7462   -4.9453   -5.3966 H       1  UNL1        0.0697
    106 H          19.7119   -4.0776   -8.6593 H       1  UNL1        0.0881
    107 H          16.6872   -3.3273  -11.3818 H       1  UNL1        0.0644
    108 H          18.6518   -1.9749  -11.7777 H       1  UNL1        0.0321
    109 H          20.1645   -4.5686  -11.7810 H       1  UNL1        0.0233
    110 H          20.9227   -3.0444  -12.0981 H       1  UNL1        0.0233
    111 H          20.2936   -3.3136  -10.5039 H       1  UNL1        0.0233
    112 H          17.6505   -2.8797  -13.8542 H       1  UNL1        0.0233
    113 H          19.4165   -2.8822  -13.9956 H       1  UNL1        0.0233
    114 H          18.5677   -4.3887  -13.6860 H       1  UNL1        0.0233
    115 H          18.5589   -6.1913   -8.9445 H       1  UNL1        0.0490
    116 H          19.6662   -5.1286   -9.9082 H       1  UNL1        0.0490
    117 H          20.6744   -7.3113   -8.8614 H       1  UNL1        0.0610
    118 H          20.7278   -8.5649  -11.3139 H       1  UNL1        0.0313
    119 H          19.3676   -8.7787  -10.2366 H       1  UNL1        0.0313
    120 H          19.5535   -6.8682  -12.6297 H       1  UNL1        0.0597
    121 H          16.1757   -9.1530  -11.9130 H       1  UNL1        0.1494
    122 HA         17.5985   -7.7713   -9.6786 H       1  UNL1        0.0571
    123 H1         15.5636   -7.3881   -8.5146 H       1  UNL1        0.0579
    124 H2         15.4963   -6.6226  -10.1025 H       1  UNL1        0.0579
    125 H          14.3834   -8.4688  -10.8636 H       1  UNL1        0.2095
    126 H          18.6190   -8.9933   -7.9985 H       1  UNL1        0.0621
    127 H          19.1354  -11.2350   -7.1369 H       1  UNL1        0.0624
    128 H          15.7217  -12.7990   -9.2522 H       1  UNL1        0.0624
    129 H          15.3625  -10.6464  -10.2999 H       1  UNL1        0.0621
    130 H          17.9879  -16.8710   -7.2800 H       1  UNL1        0.0907
    131 H          16.2514  -13.4961   -4.2558 H       1  UNL1        0.0293
    132 H          17.9791  -13.2882   -4.0112 H       1  UNL1        0.0293
    133 H          17.0673  -12.0715   -4.9061 H       1  UNL1        0.0293
    134 H          21.3158   -5.9266  -11.2672 H       1  UNL1        0.2098
@<TRIPOS>BOND
     1     2     3    1
     2     3     4    1
     3     4     5    1
     4     5     6    1
     5     6     7    1
     6     7     8    1
     7     2     8    1
     8     8     9    1
     9     9    10   ar
    10    10    11   ar
    11    11    12   ar
    12    12    13   ar
    13    13    14   ar
    14     9    14   ar
    15    13    15    1
    16    15    16   ar
    17    16    17   ar
    18    17    18   ar
    19    18    19   ar
    20    15    19   ar
    21    20    21    1
    22    21    22    1
    23    22    23    1
    24    23    24    1
    25    24    25   ar
    26    20    25    1
    27    25    26   ar
    28    26    27   ar
    29    27    28   ar
    30    24    28   ar
    31    27    29    1
    32    26    30    1
    33    30    31    3
    34     4    33    1
    35    33    34    1
    36    34    35    1
    37    35    36    1
    38    36    37    1
    39    37    38    1
    40    38    39   ar
    41    39    40   ar
    42    40    41   ar
    43    41    42   ar
    44    38    42   ar
    45    40    43    1
    46    43    44    1
    47    44    45    1
    48    44    46    1
    49    43    47    1
    50    47    48    2
    51    47    49   am
    52    49    50    1
    53    50    51    1
    54    51    52    1
    55    52    53    1
    56    49    53    1
    57    53    54    1
    58    54    55    2
    59    54    56   am
    60    56    57    1
    61    57    58    1
    62    58    59    1
    63    57    60    1
    64    60    61   ar
    65    61    62   ar
    66    62    63   ar
    67    63    64   ar
    68    64    65   ar
    69    60    65   ar
    70    63    66    1
    71    66    67   ar
    72    67    68   ar
    73    68    69   ar
    74    69    70   ar
    75    66    70   ar
    76    67    71    1
    77    51    72    1
    78     1    73    1
    79     1    74    1
    80     1    75    1
    81     3    77    1
    82     3    78    1
    83     5    79    1
    84     5    80    1
    85     6    81    1
    86     6    82    1
    87     7    83    1
    88     7    84    1
    89    11    85    1
    90    12    86    1
    91    21    87    1
    92    21    88    1
    93    22    89    1
    94    22    90    1
    95    23    91    1
    96    23    92    1
    97    29    93    1
    98    29    94    1
    99    32    95    1
   100    32    96    1
   101    32    97    1
   102    33    98    1
   103    33    99    1
   104    34   100    1
   105    34   101    1
   106    35   102    1
   107    35   103    1
   108    36   104    1
   109    36   105    1
   110    39   106    1
   111    43   107    1
   112    44   108    1
   113    45   109    1
   114    45   110    1
   115    45   111    1
   116    46   112    1
   117    46   113    1
   118    46   114    1
   119    50   115    1
   120    50   116    1
   121    51   117    1
   122    52   118    1
   123    52   119    1
   124    53   120    1
   125    56   121    1
   126    57   122    1
   127    58   123    1
   128    58   124    1
   129    59   125    1
   130    61   126    1
   131    62   127    1
   132    64   128    1
   133    65   129    1
   134    69   130    1
   135    71   131    1
   136    71   132    1
   137    71   133    1
   138    72   134    1
   139    20    32    1
   140    20    18    1
   141     2    76    1
   142     2     1    1
