@<TRIPOS>MOLECULE
*****
 134 142 0 0 0
SMALL
GASTEIGER

@<TRIPOS>ATOM
      1 C          -5.8098   -1.9744  -13.3911 C.3     1  UNL1       -0.0452
      2 C          -4.4216   -2.0708  -12.5993 C.3     1  UNL1        0.0361
      3 C          -4.0337   -3.5371  -12.2100 C.3     1  UNL1        0.0173
      4 N          -3.8088   -4.5824  -13.2556 N.3     1  UNL1       -0.3005
      5 C          -2.3955   -4.6580  -13.6199 C.3     1  UNL1        0.0004
      6 C          -1.5493   -3.3299  -13.6367 C.3     1  UNL1       -0.0243
      7 C          -2.1494   -1.9521  -14.0256 C.3     1  UNL1        0.0164
      8 N          -3.2254   -1.3930  -13.2135 N.pl3   1  UNL1       -0.2956
      9 C          -2.8529   -0.1405  -12.8648 C.ar    1  UNL1        0.2187
     10 N          -2.7279    0.7975  -13.8267 N.ar    1  UNL1       -0.2227
     11 C          -2.1165    1.9368  -13.4893 C.ar    1  UNL1        0.0333
     12 C          -1.5767    2.1265  -12.2503 C.ar    1  UNL1       -0.0142
     13 C          -1.6639    1.0497  -11.3972 C.ar    1  UNL1        0.1162
     14 N          -2.3149   -0.0741  -11.6658 N.ar    1  UNL1       -0.2111
     15 C          -1.1404    1.1184  -10.0672 C.ar    1  UNL1        0.2206
     16 N          -0.1870    0.3212   -9.5599 N.ar    1  UNL1       -0.0544
     17 O          -0.0770    0.7743   -8.2413 O.2     1  UNL1       -0.3367
     18 C          -1.0044    1.7765   -8.1027 C.ar    1  UNL1        0.2380
     19 N          -1.6464    2.0457   -9.2072 N.ar    1  UNL1       -0.1893
     20 C          -1.1248    2.4723   -6.7772 C.3     1  UNL1        0.0736
     21 C           0.2985    3.1132   -6.4729 C.3     1  UNL1       -0.0347
     22 C           0.5680    4.3577   -7.3244 C.3     1  UNL1       -0.0473
     23 C          -0.4111    5.4428   -6.9370 C.3     1  UNL1       -0.0210
     24 C          -1.8004    4.9318   -6.9319 C.ar    1  UNL1       -0.0030
     25 C          -2.2231    3.6174   -6.8420 C.ar    1  UNL1       -0.0031
     26 C          -3.7138    3.6045   -6.8653 C.ar    1  UNL1        0.0840
     27 C          -4.2446    4.9027   -6.9331 C.ar    1  UNL1        0.0810
     28 S          -3.0197    6.0789   -6.9935 S.2     1  UNL1       -0.0774
     29 N          -5.4739    5.4619   -6.9579 N.pl3   1  UNL1       -0.3516
     30 C          -4.5396    2.4421   -6.8063 C.1     1  UNL1        0.1019
     31 N          -5.2207    1.4679   -6.7253 N.1     1  UNL1       -0.1908
     32 C          -1.4275    1.4395   -5.6792 C.3     1  UNL1       -0.0469
     33 C          -4.6621   -4.4673  -14.4602 C.3     1  UNL1       -0.0009
     34 C          -4.1845   -3.2887  -15.3231 C.3     1  UNL1       -0.0371
     35 C          -3.0017   -3.3901  -16.2386 C.3     1  UNL1       -0.0174
     36 C          -3.3033   -4.4052  -17.2336 C.3     1  UNL1        0.0913
     37 O          -4.3006   -3.8693  -18.1029 O.3     1  UNL1       -0.4743
     38 C          -5.5405   -3.6195  -17.5698 C.ar    1  UNL1        0.2541
     39 C          -6.6259   -3.9496  -18.2748 C.ar    1  UNL1        0.0895
     40 N          -7.7254   -3.6540  -17.5043 N.ar    1  UNL1       -0.2358
     41 N          -7.3240   -2.8973  -16.4936 N.ar    1  UNL1       -0.0614
     42 N          -6.0689   -2.6412  -16.7726 N.ar    1  UNL1       -0.0917
     43 C          -9.1731   -3.8053  -17.6350 C.3     1  UNL1        0.1326
     44 C          -9.7557   -3.0710  -18.8690 C.3     1  UNL1       -0.0157
     45 C          -9.1657   -3.6460  -20.1283 C.3     1  UNL1       -0.0603
     46 C         -11.2772   -3.2068  -18.9869 C.3     1  UNL1       -0.0603
     47 C          -9.6636   -5.2581  -17.4666 C.2     1  UNL1        0.2412
     48 O         -10.5840   -5.4996  -16.6793 O.2     1  UNL1       -0.2732
     49 N          -9.1757   -6.2571  -18.2989 N.am    1  UNL1       -0.2856
     50 C          -7.8544   -6.3249  -18.8365 C.3     1  UNL1        0.0416
     51 C          -7.8378   -7.1481  -20.0930 C.3     1  UNL1        0.0731
     52 C          -9.0204   -8.0531  -19.8617 C.3     1  UNL1        0.0018
     53 C         -10.0186   -7.1953  -19.0334 C.3     1  UNL1        0.1047
     54 C         -10.8550   -7.9989  -18.0592 C.2     1  UNL1        0.2342
     55 O         -12.0711   -8.1101  -18.2168 O.2     1  UNL1       -0.2738
     56 N         -10.2361   -8.6413  -17.0262 N.am    1  UNL1       -0.3047
     57 CA         -8.8052   -8.6981  -16.6949 C.3     1  UNL1        0.0714
     58 C          -8.4822   -8.0663  -15.3427 C.3     1  UNL1        0.0667
     59 O          -9.0829   -8.8023  -14.2864 O.3     1  UNL1       -0.3928
     60 C          -8.2467  -10.0871  -16.8597 C.ar    1  UNL1       -0.0250
     61 C          -6.9768  -10.3116  -17.4230 C.ar    1  UNL1       -0.0561
     62 C          -6.5205  -11.6152  -17.6258 C.ar    1  UNL1       -0.0532
     63 C          -7.2576  -12.6961  -17.1401 C.ar    1  UNL1       -0.0095
     64 C          -8.5369  -12.4618  -16.6129 C.ar    1  UNL1       -0.0532
     65 C          -9.0213  -11.1738  -16.4700 C.ar    1  UNL1       -0.0561
     66 C          -6.7467  -14.0604  -17.2372 C.ar    1  UNL1        0.0417
     67 C          -5.6164  -14.7146  -16.7356 C.ar    1  UNL1        0.0531
     68 N          -5.5588  -16.0701  -17.0881 N.ar    1  UNL1       -0.2520
     69 C          -6.5994  -16.3941  -17.8230 C.ar    1  UNL1        0.0655
     70 S          -7.7042  -15.1522  -18.1673 S.2     1  UNL1       -0.0752
     71 C          -4.4961  -14.1820  -15.8760 C.3     1  UNL1       -0.0212
     72 O          -8.0124   -6.3224  -21.2470 O.3     1  UNL1       -0.3902
     73 H          -5.9137   -1.0708  -13.9978 H       1  UNL1        0.0248
     74 H          -6.6755   -2.2180  -12.7670 H       1  UNL1        0.0248
     75 H          -6.0177   -2.7159  -14.1505 H       1  UNL1        0.0248
     76 H          -4.6527   -1.5251  -11.6803 H       1  UNL1        0.0510
     77 H          -3.1190   -3.4739  -11.6009 H       1  UNL1        0.0445
     78 H          -4.7870   -3.9140  -11.5127 H       1  UNL1        0.0445
     79 H          -1.9004   -5.3562  -12.9346 H       1  UNL1        0.0427
     80 H          -2.3238   -5.2358  -14.5574 H       1  UNL1        0.0427
     81 H          -1.0619   -3.2157  -12.6686 H       1  UNL1        0.0293
     82 H          -0.7250   -3.5235  -14.3451 H       1  UNL1        0.0293
     83 H          -1.3544   -1.2900  -14.4186 H       1  UNL1        0.0465
     84 H          -2.6053   -1.8600  -14.9761 H       1  UNL1        0.0465
     85 H          -2.0736    2.7012  -14.2583 H       1  UNL1        0.0831
     86 H          -1.1206    3.0561  -11.9524 H       1  UNL1        0.0655
     87 H           1.1187    2.4000   -6.6377 H       1  UNL1        0.0278
     88 H           0.3573    3.4032   -5.4145 H       1  UNL1        0.0278
     89 H           1.5819    4.7388   -7.1650 H       1  UNL1        0.0269
     90 H           0.4739    4.1219   -8.3915 H       1  UNL1        0.0269
     91 H          -0.1870    5.8046   -5.9267 H       1  UNL1        0.0318
     92 H          -0.3207    6.2796   -7.6354 H       1  UNL1        0.0318
     93 H          -6.3832    5.0190   -6.9494 H       1  UNL1        0.1428
     94 H          -5.5036    6.4822   -7.0259 H       1  UNL1        0.1428
     95 H          -1.6113    0.4374   -6.0856 H       1  UNL1        0.0243
     96 H          -0.5940    1.3382   -4.9724 H       1  UNL1        0.0243
     97 H          -2.3014    1.7284   -5.0935 H       1  UNL1        0.0243
     98 H          -4.6936   -5.3784  -15.0606 H       1  UNL1        0.0427
     99 H          -5.7024   -4.4664  -14.1041 H       1  UNL1        0.0427
    100 H          -4.6923   -2.4353  -15.7302 H       1  UNL1        0.0279
    101 H          -4.0893   -2.5815  -14.5770 H       1  UNL1        0.0279
    102 H          -2.7793   -2.4239  -16.7265 H       1  UNL1        0.0298
    103 H          -2.0967   -3.6891  -15.7538 H       1  UNL1        0.0298
    104 H          -2.3259   -4.5449  -17.7195 H       1  UNL1        0.0697
    105 H          -3.5436   -5.3531  -16.7397 H       1  UNL1        0.0697
    106 H          -6.4967   -4.3301  -19.2680 H       1  UNL1        0.0881
    107 H          -9.6012   -3.2724  -16.7628 H       1  UNL1        0.0644
    108 H          -9.4963   -2.0058  -18.8206 H       1  UNL1        0.0321
    109 H          -9.4813   -4.6780  -20.1296 H       1  UNL1        0.0233
    110 H          -9.5086   -3.2190  -21.0618 H       1  UNL1        0.0233
    111 H          -8.0851   -3.5619  -20.1417 H       1  UNL1        0.0233
    112 H         -11.7962   -2.6793  -18.1841 H       1  UNL1        0.0233
    113 H         -11.6134   -2.7946  -19.9453 H       1  UNL1        0.0233
    114 H         -11.5942   -4.2560  -18.9703 H       1  UNL1        0.0233
    115 H          -7.1287   -6.5865  -18.0579 H       1  UNL1        0.0490
    116 H          -7.7492   -5.3687  -19.2220 H       1  UNL1        0.0490
    117 H          -6.8666   -7.6280  -20.2215 H       1  UNL1        0.0610
    118 H          -9.4466   -8.4256  -20.7908 H       1  UNL1        0.0313
    119 H          -8.6568   -8.9119  -19.3003 H       1  UNL1        0.0313
    120 H         -10.6668   -6.6139  -19.6997 H       1  UNL1        0.0597
    121 H         -10.8961   -9.1327  -16.4427 H       1  UNL1        0.1494
    122 HA         -8.2547   -8.1195  -17.4086 H       1  UNL1        0.0571
    123 H1         -7.3971   -8.0415  -15.1922 H       1  UNL1        0.0579
    124 H2         -8.8485   -7.0362  -15.2951 H       1  UNL1        0.0579
    125 H         -10.0350   -8.8216  -14.4804 H       1  UNL1        0.2095
    126 H          -6.3314   -9.4831  -17.7103 H       1  UNL1        0.0621
    127 H          -5.6069  -11.7872  -18.1902 H       1  UNL1        0.0624
    128 H          -9.1940  -13.2757  -16.3193 H       1  UNL1        0.0624
    129 H         -10.0020  -11.0217  -16.0311 H       1  UNL1        0.0621
    130 H          -6.7851  -17.3833  -18.2165 H       1  UNL1        0.0907
    131 H          -4.4269  -14.7165  -14.9186 H       1  UNL1        0.0293
    132 H          -3.5202  -14.3003  -16.3667 H       1  UNL1        0.0293
    133 H          -4.6154  -13.1198  -15.6448 H       1  UNL1        0.0293
    134 H          -8.8955   -5.9211  -21.2428 H       1  UNL1        0.2098
@<TRIPOS>BOND
     1     2     3    1
     2     3     4    1
     3     4     5    1
     4     5     6    1
     5     6     7    1
     6     7     8    1
     7     2     8    1
     8     8     9    1
     9     9    10   ar
    10    10    11   ar
    11    11    12   ar
    12    12    13   ar
    13    13    14   ar
    14     9    14   ar
    15    13    15    1
    16    15    16   ar
    17    16    17   ar
    18    17    18   ar
    19    18    19   ar
    20    15    19   ar
    21    20    21    1
    22    21    22    1
    23    22    23    1
    24    23    24    1
    25    24    25   ar
    26    20    25    1
    27    25    26   ar
    28    26    27   ar
    29    27    28   ar
    30    24    28   ar
    31    27    29    1
    32    26    30    1
    33    30    31    3
    34     4    33    1
    35    33    34    1
    36    34    35    1
    37    35    36    1
    38    36    37    1
    39    37    38    1
    40    38    39   ar
    41    39    40   ar
    42    40    41   ar
    43    41    42   ar
    44    38    42   ar
    45    40    43    1
    46    43    44    1
    47    44    45    1
    48    44    46    1
    49    43    47    1
    50    47    48    2
    51    47    49   am
    52    49    50    1
    53    50    51    1
    54    51    52    1
    55    52    53    1
    56    49    53    1
    57    53    54    1
    58    54    55    2
    59    54    56   am
    60    56    57    1
    61    57    58    1
    62    58    59    1
    63    57    60    1
    64    60    61   ar
    65    61    62   ar
    66    62    63   ar
    67    63    64   ar
    68    64    65   ar
    69    60    65   ar
    70    63    66    1
    71    66    67   ar
    72    67    68   ar
    73    68    69   ar
    74    69    70   ar
    75    66    70   ar
    76    67    71    1
    77    51    72    1
    78     1    73    1
    79     1    74    1
    80     1    75    1
    81     3    77    1
    82     3    78    1
    83     5    79    1
    84     5    80    1
    85     6    81    1
    86     6    82    1
    87     7    83    1
    88     7    84    1
    89    11    85    1
    90    12    86    1
    91    21    87    1
    92    21    88    1
    93    22    89    1
    94    22    90    1
    95    23    91    1
    96    23    92    1
    97    29    93    1
    98    29    94    1
    99    32    95    1
   100    32    96    1
   101    32    97    1
   102    33    98    1
   103    33    99    1
   104    34   100    1
   105    34   101    1
   106    35   102    1
   107    35   103    1
   108    36   104    1
   109    36   105    1
   110    39   106    1
   111    43   107    1
   112    44   108    1
   113    45   109    1
   114    45   110    1
   115    45   111    1
   116    46   112    1
   117    46   113    1
   118    46   114    1
   119    50   115    1
   120    50   116    1
   121    51   117    1
   122    52   118    1
   123    52   119    1
   124    53   120    1
   125    56   121    1
   126    57   122    1
   127    58   123    1
   128    58   124    1
   129    59   125    1
   130    61   126    1
   131    62   127    1
   132    64   128    1
   133    65   129    1
   134    69   130    1
   135    71   131    1
   136    71   132    1
   137    71   133    1
   138    72   134    1
   139     2    76    1
   140     2     1    1
   141    20    32    1
   142    20    18    1
