@<TRIPOS>MOLECULE
*****
 134 142 0 0 0
SMALL
GASTEIGER

@<TRIPOS>ATOM
      1 C          13.2046    6.0732    6.7819 C.3     1  UNL1       -0.0452
      2 C          12.6711    5.2371    5.5339 C.3     1  UNL1        0.0361
      3 C          12.8131    5.9702    4.1335 C.3     1  UNL1        0.0173
      4 N          14.1361    6.4122    3.5657 N.3     1  UNL1       -0.3005
      5 C          14.7353    5.3393    2.7600 C.3     1  UNL1        0.0004
      6 C          14.5153    3.8303    3.1939 C.3     1  UNL1       -0.0243
      7 C          14.3843    3.3656    4.6833 C.3     1  UNL1        0.0164
      8 N          13.2008    3.8419    5.3703 N.pl3   1  UNL1       -0.2956
      9 C          12.6064    2.7956    5.9787 C.ar    1  UNL1        0.2187
     10 N          13.2505    2.1272    6.9532 N.ar    1  UNL1       -0.2227
     11 C          12.6667    1.0114    7.3970 C.ar    1  UNL1        0.0333
     12 C          11.5119    0.5295    6.8481 C.ar    1  UNL1       -0.0142
     13 C          11.0287    1.2334    5.7693 C.ar    1  UNL1        0.1162
     14 N          11.5436    2.3705    5.3304 N.ar    1  UNL1       -0.2111
     15 C           9.8217    0.8450    5.1056 C.ar    1  UNL1        0.2206
     16 N           9.7172    0.5286    3.8056 N.ar    1  UNL1       -0.0544
     17 O           8.3557    0.2551    3.6637 O.2     1  UNL1       -0.3367
     18 C           7.7876    0.4779    4.8934 C.ar    1  UNL1        0.2380
     19 N           8.6567    0.8008    5.8135 N.ar    1  UNL1       -0.1893
     20 C           6.3126    0.2366    5.0553 C.3     1  UNL1        0.0736
     21 C           6.0581   -1.2939    4.7037 C.3     1  UNL1       -0.0347
     22 C           6.5457   -2.2320    5.8117 C.3     1  UNL1       -0.0473
     23 C           5.7217   -1.9987    7.0581 C.3     1  UNL1       -0.0210
     24 C           5.6456   -0.5579    7.3899 C.ar    1  UNL1       -0.0030
     25 C           5.8629    0.5224    6.5519 C.ar    1  UNL1       -0.0031
     26 C           5.6741    1.7705    7.3485 C.ar    1  UNL1        0.0840
     27 C           5.2978    1.4935    8.6727 C.ar    1  UNL1        0.0810
     28 S           5.2058   -0.1779    8.9612 S.2     1  UNL1       -0.0774
     29 N           4.9886    2.2070    9.7775 N.pl3   1  UNL1       -0.3516
     30 C           5.8344    3.1068    6.8649 C.1     1  UNL1        0.1019
     31 N           5.9395    4.2112    6.4420 N.1     1  UNL1       -0.1908
     32 C           5.5451    1.0759    4.0231 C.3     1  UNL1       -0.0469
     33 C          15.1159    6.9151    4.5616 C.3     1  UNL1       -0.0009
     34 C          15.6369    5.7227    5.3464 C.3     1  UNL1       -0.0371
     35 C          16.7144    4.7876    4.8631 C.3     1  UNL1       -0.0174
     36 C          17.9275    5.5651    4.6901 C.3     1  UNL1        0.0913
     37 O          18.4250    5.8692    5.9935 O.3     1  UNL1       -0.4743
     38 C          17.6441    6.6477    6.8109 C.ar    1  UNL1        0.2541
     39 C          18.2240    7.5960    7.5530 C.ar    1  UNL1        0.0895
     40 N          17.2196    8.2871    8.2055 N.ar    1  UNL1       -0.2358
     41 N          16.1084    7.5707    8.0926 N.ar    1  UNL1       -0.0614
     42 N          16.5111    6.4434    7.5465 N.ar    1  UNL1       -0.0917
     43 C          17.1428    9.4523    9.1015 C.3     1  UNL1        0.1326
     44 C          17.9626    9.2642   10.4082 C.3     1  UNL1       -0.0157
     45 C          19.4155    9.1066   10.0644 C.3     1  UNL1       -0.0603
     46 C          17.8701   10.4588   11.3645 C.3     1  UNL1       -0.0603
     47 C          17.3627   10.8252    8.3992 C.2     1  UNL1        0.2412
     48 O          16.5574   11.7437    8.5803 O.2     1  UNL1       -0.2732
     49 N          18.5378   11.0692    7.6948 N.am    1  UNL1       -0.2856
     50 C          19.2445   10.0788    6.9564 C.3     1  UNL1        0.0416
     51 C          20.7175   10.3744    6.9190 C.3     1  UNL1        0.0731
     52 C          20.7072   11.8705    7.1059 C.3     1  UNL1        0.0018
     53 C          19.4532   12.1733    7.9744 C.3     1  UNL1        0.1047
     54 C          18.7788   13.4949    7.6386 C.2     1  UNL1        0.2342
     55 O          18.7946   14.4236    8.4473 O.2     1  UNL1       -0.2738
     56 N          18.2174   13.6731    6.4033 N.am    1  UNL1       -0.3047
     57 CA         18.1368   12.7249    5.2938 C.3     1  UNL1        0.0714
     58 C          16.7024   12.2795    4.9744 C.3     1  UNL1        0.0667
     59 O          15.8993   13.3631    4.5272 O.3     1  UNL1       -0.3928
     60 C          18.9290   13.2029    4.1059 C.ar    1  UNL1       -0.0250
     61 C          18.4852   14.2979    3.3719 C.ar    1  UNL1       -0.0561
     62 C          19.1615   14.7011    2.2322 C.ar    1  UNL1       -0.0532
     63 C          20.3966   14.1451    1.9107 C.ar    1  UNL1       -0.0095
     64 C          20.8411   13.0250    2.6263 C.ar    1  UNL1       -0.0532
     65 C          20.0964   12.5397    3.6942 C.ar    1  UNL1       -0.0561
     66 C          21.1532   14.6880    0.7901 C.ar    1  UNL1        0.0417
     67 C          21.5975   15.9742    0.4651 C.ar    1  UNL1        0.0531
     68 N          22.2420   16.0379   -0.7763 N.ar    1  UNL1       -0.2520
     69 C          22.2654   14.8489   -1.3370 C.ar    1  UNL1        0.0655
     70 S          21.5602   13.5775   -0.4604 S.2     1  UNL1       -0.0752
     71 C          21.4808   17.2587    1.2519 C.3     1  UNL1       -0.0212
     72 O          21.4200    9.7092    7.9704 O.3     1  UNL1       -0.3902
     73 H          13.8029    5.4934    7.4963 H       1  UNL1        0.0248
     74 H          12.4467    6.6484    7.3206 H       1  UNL1        0.0248
     75 H          13.8400    6.9083    6.5042 H       1  UNL1        0.0248
     76 H          11.6016    5.1448    5.7488 H       1  UNL1        0.0510
     77 H          12.3685    5.2898    3.3903 H       1  UNL1        0.0445
     78 H          12.1449    6.8346    4.1313 H       1  UNL1        0.0445
     79 H          14.3774    5.4470    1.7294 H       1  UNL1        0.0427
     80 H          15.7998    5.5931    2.6109 H       1  UNL1        0.0427
     81 H          13.6358    3.4565    2.6684 H       1  UNL1        0.0293
     82 H          15.3582    3.2707    2.7541 H       1  UNL1        0.0293
     83 H          14.6631    2.2980    4.7351 H       1  UNL1        0.0465
     84 H          15.1229    3.5754    5.4347 H       1  UNL1        0.0465
     85 H          13.1593    0.5167    8.2272 H       1  UNL1        0.0831
     86 H          11.0039   -0.3371    7.2359 H       1  UNL1        0.0655
     87 H           6.5396   -1.5896    3.7614 H       1  UNL1        0.0278
     88 H           4.9823   -1.4708    4.5620 H       1  UNL1        0.0278
     89 H           6.4361   -3.2824    5.5225 H       1  UNL1        0.0269
     90 H           7.6090   -2.0616    6.0191 H       1  UNL1        0.0269
     91 H           4.6971   -2.3553    6.9019 H       1  UNL1        0.0318
     92 H           6.1610   -2.5551    7.8913 H       1  UNL1        0.0318
     93 H           4.9676    3.2092    9.9121 H       1  UNL1        0.1428
     94 H           4.7592    1.6656   10.6148 H       1  UNL1        0.1428
     95 H           6.1250    1.2339    3.1038 H       1  UNL1        0.0243
     96 H           4.6107    0.5898    3.7224 H       1  UNL1        0.0243
     97 H           5.2877    2.0594    4.4142 H       1  UNL1        0.0243
     98 H          15.9547    7.4675    4.1339 H       1  UNL1        0.0427
     99 H          14.6311    7.7227    5.1237 H       1  UNL1        0.0427
    100 H          15.5840    5.5151    6.3918 H       1  UNL1        0.0279
    101 H          14.7247    5.2513    5.4016 H       1  UNL1        0.0279
    102 H          16.9058    3.9615    5.5706 H       1  UNL1        0.0298
    103 H          16.5152    4.3161    3.9234 H       1  UNL1        0.0298
    104 H          18.5710    4.8680    4.1303 H       1  UNL1        0.0697
    105 H          17.7284    6.4126    4.0251 H       1  UNL1        0.0697
    106 H          19.2946    7.6868    7.5462 H       1  UNL1        0.0881
    107 H          16.0883    9.4878    9.4378 H       1  UNL1        0.0644
    108 H          17.6314    8.3586   10.9316 H       1  UNL1        0.0321
    109 H          19.6680   10.0414    9.5901 H       1  UNL1        0.0233
    110 H          20.1072    8.9850   10.8879 H       1  UNL1        0.0233
    111 H          19.5882    8.2678    9.4009 H       1  UNL1        0.0233
    112 H          16.8716   10.5617   11.7921 H       1  UNL1        0.0233
    113 H          18.5875   10.3350   12.1849 H       1  UNL1        0.0233
    114 H          18.1308   11.4002   10.8671 H       1  UNL1        0.0233
    115 H          18.7432    9.8482    6.0100 H       1  UNL1        0.0490
    116 H          19.2073    9.3190    7.6487 H       1  UNL1        0.0490
    117 H          21.1561    9.9815    6.0008 H       1  UNL1        0.0610
    118 H          21.6406   12.2482    7.5170 H       1  UNL1        0.0313
    119 H          20.5989   12.3194    6.1309 H       1  UNL1        0.0313
    120 H          19.7256   12.1486    9.0352 H       1  UNL1        0.0597
    121 H          17.8152   14.5914    6.2851 H       1  UNL1        0.1494
    122 HA         18.6219   11.8109    5.5679 H       1  UNL1        0.0571
    123 H1         16.7208   11.5045    4.1991 H       1  UNL1        0.0579
    124 H2         16.2195   11.8540    5.8590 H       1  UNL1        0.0579
    125 H          15.9744   14.0509    5.2101 H       1  UNL1        0.2095
    126 H          17.5866   14.8306    3.6620 H       1  UNL1        0.0621
    127 H          18.6946   15.4327    1.5809 H       1  UNL1        0.0624
    128 H          21.7485   12.4927    2.3474 H       1  UNL1        0.0624
    129 H          20.4616   11.6482    4.1982 H       1  UNL1        0.0621
    130 H          22.6975   14.6377   -2.3042 H       1  UNL1        0.0907
    131 H          22.4665   17.6939    1.4669 H       1  UNL1        0.0293
    132 H          20.9171   18.0239    0.7014 H       1  UNL1        0.0293
    133 H          20.9789   17.1171    2.2137 H       1  UNL1        0.0293
    134 H          21.2449   10.1410    8.8212 H       1  UNL1        0.2098
@<TRIPOS>BOND
     1     2     3    1
     2     3     4    1
     3     4     5    1
     4     5     6    1
     5     6     7    1
     6     7     8    1
     7     2     8    1
     8     8     9    1
     9     9    10   ar
    10    10    11   ar
    11    11    12   ar
    12    12    13   ar
    13    13    14   ar
    14     9    14   ar
    15    13    15    1
    16    15    16   ar
    17    16    17   ar
    18    17    18   ar
    19    18    19   ar
    20    15    19   ar
    21    20    21    1
    22    21    22    1
    23    22    23    1
    24    23    24    1
    25    24    25   ar
    26    20    25    1
    27    25    26   ar
    28    26    27   ar
    29    27    28   ar
    30    24    28   ar
    31    27    29    1
    32    26    30    1
    33    30    31    3
    34     4    33    1
    35    33    34    1
    36    34    35    1
    37    35    36    1
    38    36    37    1
    39    37    38    1
    40    38    39   ar
    41    39    40   ar
    42    40    41   ar
    43    41    42   ar
    44    38    42   ar
    45    40    43    1
    46    43    44    1
    47    44    45    1
    48    44    46    1
    49    43    47    1
    50    47    48    2
    51    47    49   am
    52    49    50    1
    53    50    51    1
    54    51    52    1
    55    52    53    1
    56    49    53    1
    57    53    54    1
    58    54    55    2
    59    54    56   am
    60    56    57    1
    61    57    58    1
    62    58    59    1
    63    57    60    1
    64    60    61   ar
    65    61    62   ar
    66    62    63   ar
    67    63    64   ar
    68    64    65   ar
    69    60    65   ar
    70    63    66    1
    71    66    67   ar
    72    67    68   ar
    73    68    69   ar
    74    69    70   ar
    75    66    70   ar
    76    67    71    1
    77    51    72    1
    78     1    73    1
    79     1    74    1
    80     1    75    1
    81     3    77    1
    82     3    78    1
    83     5    79    1
    84     5    80    1
    85     6    81    1
    86     6    82    1
    87     7    83    1
    88     7    84    1
    89    11    85    1
    90    12    86    1
    91    21    87    1
    92    21    88    1
    93    22    89    1
    94    22    90    1
    95    23    91    1
    96    23    92    1
    97    29    93    1
    98    29    94    1
    99    32    95    1
   100    32    96    1
   101    32    97    1
   102    33    98    1
   103    33    99    1
   104    34   100    1
   105    34   101    1
   106    35   102    1
   107    35   103    1
   108    36   104    1
   109    36   105    1
   110    39   106    1
   111    43   107    1
   112    44   108    1
   113    45   109    1
   114    45   110    1
   115    45   111    1
   116    46   112    1
   117    46   113    1
   118    46   114    1
   119    50   115    1
   120    50   116    1
   121    51   117    1
   122    52   118    1
   123    52   119    1
   124    53   120    1
   125    56   121    1
   126    57   122    1
   127    58   123    1
   128    58   124    1
   129    59   125    1
   130    61   126    1
   131    62   127    1
   132    64   128    1
   133    65   129    1
   134    69   130    1
   135    71   131    1
   136    71   132    1
   137    71   133    1
   138    72   134    1
   139    20    32    1
   140    20    18    1
   141     2    76    1
   142     2     1    1
