@<TRIPOS>MOLECULE
*****
 134 142 0 0 0
SMALL
GASTEIGER

@<TRIPOS>ATOM
      1 C           2.5542    6.6257  -13.8846 C.3     1  UNL1       -0.0452
      2 C           1.5100    5.8646  -12.9503 C.3     1  UNL1        0.0361
      3 C           0.4266    6.8538  -12.4193 C.3     1  UNL1        0.0173
      4 N          -0.4961    7.5631  -13.3615 N.3     1  UNL1       -0.3005
      5 C          -1.7435    6.8187  -13.5163 C.3     1  UNL1        0.0004
      6 C          -1.6866    5.2464  -13.5084 C.3     1  UNL1       -0.0243
      7 C          -0.4807    4.4516  -14.0668 C.3     1  UNL1        0.0164
      8 N           0.8276    4.6187  -13.4470 N.pl3   1  UNL1       -0.2956
      9 C           1.3163    3.3811  -13.1963 C.ar    1  UNL1        0.2187
     10 N           1.6539    2.5884  -14.2338 N.ar    1  UNL1       -0.2227
     11 C           1.9493    1.3156  -13.9547 C.ar    1  UNL1        0.0333
     12 C           1.8511    0.8116  -12.6901 C.ar    1  UNL1       -0.0142
     13 C           1.3677    1.6843  -11.7408 C.ar    1  UNL1        0.1162
     14 N           1.1128    2.9687  -11.9608 N.ar    1  UNL1       -0.2111
     15 C           1.2317    1.2730  -10.3750 C.ar    1  UNL1        0.2206
     16 N           0.0845    1.2235   -9.6799 N.ar    1  UNL1       -0.0544
     17 O           0.5011    0.7522   -8.4295 O.2     1  UNL1       -0.3367
     18 C           1.8632    0.6064   -8.5090 C.ar    1  UNL1        0.2380
     19 N           2.3429    0.8750   -9.6937 N.ar    1  UNL1       -0.1893
     20 C           2.6161    0.1005   -7.3101 C.3     1  UNL1        0.0736
     21 C           2.0403   -1.3381   -6.9557 C.3     1  UNL1       -0.0347
     22 C           2.4989   -2.4127   -7.9436 C.3     1  UNL1       -0.0473
     23 C           3.9993   -2.5764   -7.8407 C.3     1  UNL1       -0.0210
     24 C           4.6893   -1.2685   -7.9091 C.ar    1  UNL1       -0.0030
     25 C           4.1633   -0.0139   -7.6543 C.ar    1  UNL1       -0.0031
     26 C           5.2427    0.9944   -7.8711 C.ar    1  UNL1        0.0840
     27 C           6.4619    0.3873   -8.2140 C.ar    1  UNL1        0.0810
     28 S           6.3160   -1.3026   -8.3089 S.2     1  UNL1       -0.0774
     29 N           7.7201    0.7954   -8.4881 N.pl3   1  UNL1       -0.3516
     30 C           5.1037    2.4083   -7.7494 C.1     1  UNL1        0.1019
     31 N           4.9828    3.5881   -7.6118 N.1     1  UNL1       -0.1908
     32 C           2.3292    1.0027   -6.1007 C.3     1  UNL1       -0.0469
     33 C           0.0648    7.9284  -14.6842 C.3     1  UNL1       -0.0009
     34 C           0.2304    6.6673  -15.5494 C.3     1  UNL1       -0.0371
     35 C          -0.9306    6.0646  -16.2871 C.3     1  UNL1       -0.0174
     36 C          -1.4171    7.0532  -17.2395 C.3     1  UNL1        0.0913
     37 O          -0.4442    7.1885  -18.2816 O.3     1  UNL1       -0.4743
     38 C           0.7919    7.6597  -17.9155 C.ar    1  UNL1        0.2541
     39 C           1.3853    8.6244  -18.6290 C.ar    1  UNL1        0.0895
     40 N           2.5593    8.9477  -17.9842 N.ar    1  UNL1       -0.2358
     41 N           2.7868    8.0032  -17.0803 N.ar    1  UNL1       -0.0614
     42 N           1.9048    7.0721  -17.3795 N.ar    1  UNL1       -0.0917
     43 C           3.6634    9.8831  -18.1974 C.3     1  UNL1        0.1326
     44 C           4.4271    9.6542  -19.5284 C.3     1  UNL1       -0.0157
     45 C           3.4892    9.8437  -20.6909 C.3     1  UNL1       -0.0603
     46 C           5.5987   10.6231  -19.7309 C.3     1  UNL1       -0.0603
     47 C           3.2907   11.3494  -17.9313 C.2     1  UNL1        0.2412
     48 O           4.0018   12.0281  -17.1838 O.2     1  UNL1       -0.2732
     49 N           2.2518   11.9371  -18.6379 N.am    1  UNL1       -0.2856
     50 C           1.0634   11.2861  -19.0963 C.3     1  UNL1        0.0416
     51 C           0.4527   12.0576  -20.2305 C.3     1  UNL1        0.0731
     52 C           0.9519   13.4497  -19.9411 C.3     1  UNL1        0.0018
     53 C           2.3435   13.2414  -19.2837 C.3     1  UNL1        0.1047
     54 C           2.7029   14.2996  -18.2587 C.2     1  UNL1        0.2342
     55 O           3.6319   15.0815  -18.4632 O.2     1  UNL1       -0.2738
     56 N           1.9559   14.4043  -17.1203 N.am    1  UNL1       -0.3047
     57 CA          0.7859   13.6180  -16.7083 C.3     1  UNL1        0.0714
     58 C           1.0214   12.8116  -15.4328 C.3     1  UNL1        0.0667
     59 O           1.2349   13.6730  -14.3240 O.3     1  UNL1       -0.3928
     60 C          -0.4657   14.4541  -16.6699 C.ar    1  UNL1       -0.0250
     61 C          -1.6888   13.9634  -17.1628 C.ar    1  UNL1       -0.0561
     62 C          -2.8156   14.7853  -17.1889 C.ar    1  UNL1       -0.0532
     63 C          -2.7732   16.0453  -16.5913 C.ar    1  UNL1       -0.0095
     64 C          -1.5405   16.5371  -16.1325 C.ar    1  UNL1       -0.0532
     65 C          -0.4028   15.7488  -16.1669 C.ar    1  UNL1       -0.0561
     66 C          -3.9717   16.8748  -16.5031 C.ar    1  UNL1        0.0417
     67 C          -5.2201   16.7198  -15.8905 C.ar    1  UNL1        0.0531
     68 N          -6.0659   17.8231  -16.0694 N.ar    1  UNL1       -0.2520
     69 C          -5.4661   18.7445  -16.7902 C.ar    1  UNL1        0.0655
     70 S          -3.8934   18.3902  -17.3220 S.2     1  UNL1       -0.0752
     71 C          -5.7560   15.5716  -15.0701 C.3     1  UNL1       -0.0212
     72 O           0.9316   11.5710  -21.4862 O.3     1  UNL1       -0.3902
     73 H           3.1501    5.9935  -14.5451 H       1  UNL1        0.0248
     74 H           3.0992    7.4096  -13.3440 H       1  UNL1        0.0248
     75 H           2.1618    7.2893  -14.6362 H       1  UNL1        0.0248
     76 H           2.1488    5.5469  -12.1214 H       1  UNL1        0.0510
     77 H          -0.1890    6.2959  -11.6983 H       1  UNL1        0.0445
     78 H           0.9331    7.6065  -11.8089 H       1  UNL1        0.0445
     79 H          -2.4287    7.1281  -12.7189 H       1  UNL1        0.0427
     80 H          -2.2728    7.2340  -14.3909 H       1  UNL1        0.0427
     81 H          -1.8695    4.8942  -12.4938 H       1  UNL1        0.0293
     82 H          -2.5702    4.9236  -14.0857 H       1  UNL1        0.0293
     83 H          -0.8019    3.4530  -14.4224 H       1  UNL1        0.0465
     84 H          -0.2052    4.6395  -15.0663 H       1  UNL1        0.0465
     85 H           2.2796    0.7084  -14.7912 H       1  UNL1        0.0831
     86 H           2.1417   -0.1967  -12.4444 H       1  UNL1        0.0655
     87 H           0.9427   -1.3474   -6.9105 H       1  UNL1        0.0278
     88 H           2.3862   -1.6390   -5.9559 H       1  UNL1        0.0278
     89 H           2.0362   -3.3800   -7.7212 H       1  UNL1        0.0269
     90 H           2.2111   -2.1405   -8.9658 H       1  UNL1        0.0269
     91 H           4.2625   -3.0359   -6.8810 H       1  UNL1        0.0318
     92 H           4.3468   -3.2300   -8.6463 H       1  UNL1        0.0318
     93 H           8.1009    1.7320   -8.5191 H       1  UNL1        0.1428
     94 H           8.3933    0.0600   -8.7171 H       1  UNL1        0.1428
     95 H           3.0542    1.8113   -6.0171 H       1  UNL1        0.0243
     96 H           1.3307    1.4581   -6.1463 H       1  UNL1        0.0243
     97 H           2.3677    0.4358   -5.1637 H       1  UNL1        0.0243
     98 H          -0.5371    8.6654  -15.2200 H       1  UNL1        0.0427
     99 H           0.9453    8.5617  -14.4989 H       1  UNL1        0.0427
    100 H           1.0577    6.2582  -16.0911 H       1  UNL1        0.0279
    101 H           0.7020    6.0461  -14.8646 H       1  UNL1        0.0279
    102 H          -0.6491    5.1290  -16.8030 H       1  UNL1        0.0298
    103 H          -1.7577    5.8128  -15.6567 H       1  UNL1        0.0298
    104 H          -2.3636    6.6028  -17.5745 H       1  UNL1        0.0697
    105 H          -1.6908    7.9734  -16.7103 H       1  UNL1        0.0697
    106 H           0.9535    8.9110  -19.5653 H       1  UNL1        0.0881
    107 H           4.4048    9.6466  -17.4077 H       1  UNL1        0.0644
    108 H           4.8116    8.6268  -19.5590 H       1  UNL1        0.0321
    109 H           3.1732   10.8745  -20.6293 H       1  UNL1        0.0233
    110 H           3.9153    9.7142  -21.6776 H       1  UNL1        0.0233
    111 H           2.6445    9.1648  -20.6344 H       1  UNL1        0.0233
    112 H           6.4030   10.4460  -19.0135 H       1  UNL1        0.0233
    113 H           6.0081   10.5063  -20.7412 H       1  UNL1        0.0233
    114 H           5.2829   11.6688  -19.6415 H       1  UNL1        0.0233
    115 H           0.4051   11.0465  -18.2526 H       1  UNL1        0.0490
    116 H           1.4471   10.4587  -19.5977 H       1  UNL1        0.0490
    117 H          -0.6293   11.9165  -20.2497 H       1  UNL1        0.0610
    118 H           0.9912   14.0699  -20.8338 H       1  UNL1        0.0313
    119 H           0.2420   13.9072  -19.2547 H       1  UNL1        0.0313
    120 H           3.1230   13.1753  -20.0521 H       1  UNL1        0.0597
    121 H           2.2974   15.1334  -16.5124 H       1  UNL1        0.1494
    122 HA          0.5751   12.8842  -17.4595 H       1  UNL1        0.0571
    123 H1          0.1546   12.1721  -15.2309 H       1  UNL1        0.0579
    124 H2          1.8956   12.1616  -15.5359 H       1  UNL1        0.0579
    125 H           1.9912   14.2347  -14.5629 H       1  UNL1        0.2095
    126 H          -1.7783   12.9439  -17.5339 H       1  UNL1        0.0621
    127 H          -3.7141   14.4541  -17.7041 H       1  UNL1        0.0624
    128 H          -1.4338   17.5514  -15.7575 H       1  UNL1        0.0624
    129 H           0.5312   16.1437  -15.7795 H       1  UNL1        0.0621
    130 H          -5.9094   19.6918  -17.0621 H       1  UNL1        0.0907
    131 H          -6.0201   15.8864  -14.0511 H       1  UNL1        0.0293
    132 H          -6.6716   15.1535  -15.5107 H       1  UNL1        0.0293
    133 H          -5.0377   14.7521  -14.9789 H       1  UNL1        0.0293
    134 H           1.8915   11.6987  -21.5490 H       1  UNL1        0.2098
@<TRIPOS>BOND
     1     2     3    1
     2     3     4    1
     3     4     5    1
     4     5     6    1
     5     6     7    1
     6     7     8    1
     7     2     8    1
     8     8     9    1
     9     9    10   ar
    10    10    11   ar
    11    11    12   ar
    12    12    13   ar
    13    13    14   ar
    14     9    14   ar
    15    13    15    1
    16    15    16   ar
    17    16    17   ar
    18    17    18   ar
    19    18    19   ar
    20    15    19   ar
    21    20    21    1
    22    21    22    1
    23    22    23    1
    24    23    24    1
    25    24    25   ar
    26    20    25    1
    27    25    26   ar
    28    26    27   ar
    29    27    28   ar
    30    24    28   ar
    31    27    29    1
    32    26    30    1
    33    30    31    3
    34     4    33    1
    35    33    34    1
    36    34    35    1
    37    35    36    1
    38    36    37    1
    39    37    38    1
    40    38    39   ar
    41    39    40   ar
    42    40    41   ar
    43    41    42   ar
    44    38    42   ar
    45    40    43    1
    46    43    44    1
    47    44    45    1
    48    44    46    1
    49    43    47    1
    50    47    48    2
    51    47    49   am
    52    49    50    1
    53    50    51    1
    54    51    52    1
    55    52    53    1
    56    49    53    1
    57    53    54    1
    58    54    55    2
    59    54    56   am
    60    56    57    1
    61    57    58    1
    62    58    59    1
    63    57    60    1
    64    60    61   ar
    65    61    62   ar
    66    62    63   ar
    67    63    64   ar
    68    64    65   ar
    69    60    65   ar
    70    63    66    1
    71    66    67   ar
    72    67    68   ar
    73    68    69   ar
    74    69    70   ar
    75    66    70   ar
    76    67    71    1
    77    51    72    1
    78     1    73    1
    79     1    74    1
    80     1    75    1
    81     3    77    1
    82     3    78    1
    83     5    79    1
    84     5    80    1
    85     6    81    1
    86     6    82    1
    87     7    83    1
    88     7    84    1
    89    11    85    1
    90    12    86    1
    91    21    87    1
    92    21    88    1
    93    22    89    1
    94    22    90    1
    95    23    91    1
    96    23    92    1
    97    29    93    1
    98    29    94    1
    99    32    95    1
   100    32    96    1
   101    32    97    1
   102    33    98    1
   103    33    99    1
   104    34   100    1
   105    34   101    1
   106    35   102    1
   107    35   103    1
   108    36   104    1
   109    36   105    1
   110    39   106    1
   111    43   107    1
   112    44   108    1
   113    45   109    1
   114    45   110    1
   115    45   111    1
   116    46   112    1
   117    46   113    1
   118    46   114    1
   119    50   115    1
   120    50   116    1
   121    51   117    1
   122    52   118    1
   123    52   119    1
   124    53   120    1
   125    56   121    1
   126    57   122    1
   127    58   123    1
   128    58   124    1
   129    59   125    1
   130    61   126    1
   131    62   127    1
   132    64   128    1
   133    65   129    1
   134    69   130    1
   135    71   131    1
   136    71   132    1
   137    71   133    1
   138    72   134    1
   139    20    32    1
   140    20    18    1
   141     2    76    1
   142     2     1    1
