@<TRIPOS>MOLECULE
*****
 101 103 0 0 0
SMALL
GASTEIGER

@<TRIPOS>ATOM
      1 O           6.1340    1.6628   -1.7074 O.2     1  UNL1       -0.2738
      2 C           5.6259    2.7582   -1.4368 C.2     1  UNL1        0.2339
      3 C           5.6484    3.8804   -2.6280 C.3     1  UNL1        0.1047
      4 C           6.8447    4.7649   -2.6989 C.3     1  UNL1        0.0018
      5 C           6.3134    5.6928   -3.7524 C.3     1  UNL1        0.0731
      6 O           6.4912    5.0851   -5.0362 O.3     1  UNL1       -0.3902
      7 C           4.7935    5.9110   -3.4118 C.3     1  UNL1        0.0416
      8 N           4.3474    4.6771   -2.8270 N.am    1  UNL1       -0.2858
      9 C           2.8626    4.2425   -2.9526 C.2     1  UNL1        0.2371
     10 C           2.2345    2.5421   -2.5415 C.3     1  UNL1        0.1044
     11 C           3.1216    1.2409   -2.4862 C.3     1  UNL1       -0.0108
     12 C           3.8670    0.6702   -3.7064 C.3     1  UNL1       -0.0579
     13 C           4.1196    2.2000   -2.5210 C.3     1  UNL1       -0.0579
     14 C           3.2400    0.4743   -1.1964 C.3     1  UNL1       -0.0579
     15 N           1.3666    2.1179   -3.5531 N.am    1  UNL1       -0.3037
     16 C           0.1827    1.6163   -3.1292 C.2     1  UNL1        0.2105
     17 C          -0.6049    0.9728   -4.2070 C.3     1  UNL1        0.0122
     18 O          -0.2189    1.7349   -1.9775 O.2     1  UNL1       -0.2761
     19 O           1.9993    5.0463   -3.3076 O.2     1  UNL1       -0.2735
     20 N           4.3740    3.1240   -0.1319 N.am    1  UNL1       -0.3095
     21 C           4.0603    2.4697    1.2810 C.3     1  UNL1        0.0403
     22 C           4.7811    3.3456    2.4535 C.ar    1  UNL1        0.0113
     23 C           4.7407    2.6627    3.6980 C.ar    1  UNL1       -0.0530
     24 C           5.6472    3.0431    4.7136 C.ar    1  UNL1       -0.0529
     25 C           6.7604    3.8857    4.5014 C.ar    1  UNL1       -0.0061
     26 C           7.6491    4.2849    5.5639 C.ar    1  UNL1        0.0418
     27 C           7.8231    5.5924    5.9735 C.ar    1  UNL1        0.0531
     28 C           7.1350    6.7757    5.3909 C.3     1  UNL1       -0.0212
     29 N           8.7175    5.7646    7.0047 N.ar    1  UNL1       -0.2520
     30 C           9.2082    4.5944    7.3512 C.ar    1  UNL1        0.0655
     31 S           8.6289    3.2329    6.4736 S.2     1  UNL1       -0.0752
     32 C           6.9133    4.5453    3.3009 C.ar    1  UNL1       -0.0113
     33 C           5.9250    4.3716    2.3198 C.ar    1  UNL1        0.1259
     34 O           6.7422    4.6474    1.2223 O.3     1  UNL1       -0.4893
     35 C           6.4383    3.8199    0.2368 C.3     1  UNL1        0.1128
     36 C           6.1125    1.8919    0.4869 C.3     1  UNL1        0.0818
     37 O           6.0423    1.0873    1.5529 O.3     1  UNL1       -0.3742
     38 C           6.9381    1.8056    2.2983 C.3     1  UNL1        0.0711
     39 C           8.3698    2.1414    1.8488 C.3     1  UNL1        0.0711
     40 O           8.7487    2.6349    0.5010 O.3     1  UNL1       -0.3752
     41 C           8.4221    1.7776   -0.7556 C.3     1  UNL1        0.0711
     42 C           7.5448    0.2137   -0.5313 C.3     1  UNL1        0.0711
     43 O           7.2882   -0.7330    0.6388 O.3     1  UNL1       -0.3752
     44 C           8.1062   -0.6657    1.8335 C.3     1  UNL1        0.0711
     45 C           9.6736   -0.5083    1.7604 C.3     1  UNL1        0.0714
     46 O          10.3424    0.0649    0.5991 O.3     1  UNL1       -0.3735
     47 C          10.1499   -0.6282   -0.6448 C.3     1  UNL1        0.0657
     48 C           9.8761   -2.0845   -0.6143 C.2     1  UNL1       -0.0658
     49 C           8.6724   -2.7290   -0.5468 C.2     1  UNL1       -0.1005
     50 H           5.8216    3.3257   -3.6025 H       1  UNL1        0.0597
     51 H           7.7378    4.1426   -2.9149 H       1  UNL1        0.0313
     52 H           6.9911    5.3327   -1.7898 H       1  UNL1        0.0313
     53 H           6.8992    6.6032   -3.6891 H       1  UNL1        0.0610
     54 H           5.8962    4.3180   -5.1381 H       1  UNL1        0.2098
     55 H           4.6424    6.6145   -2.5949 H       1  UNL1        0.0490
     56 H           4.2117    6.1257   -4.3046 H       1  UNL1        0.0490
     57 H           1.8218    2.6971   -1.5268 H       1  UNL1        0.0600
     58 H           4.1517    1.4830   -4.4557 H       1  UNL1        0.0236
     59 H           4.8527    0.2063   -3.4334 H       1  UNL1        0.0236
     60 H           3.1719    0.0215   -4.1306 H       1  UNL1        0.0236
     61 H           3.8492    2.9132   -1.7650 H       1  UNL1        0.0236
     62 H           5.0532    1.9229   -2.9868 H       1  UNL1        0.0236
     63 H           4.0515    2.8161   -3.3498 H       1  UNL1        0.0236
     64 H           3.0070    1.0581   -0.3048 H       1  UNL1        0.0236
     65 H           2.4616   -0.2532   -1.2994 H       1  UNL1        0.0236
     66 H           4.2002   -0.0416   -1.0144 H       1  UNL1        0.0236
     67 H           1.8298    1.8401   -4.4117 H       1  UNL1        0.1495
     68 H          -0.9055   -0.0211   -3.8780 H       1  UNL1        0.0322
     69 H          -1.4775    1.6013   -4.3748 H       1  UNL1        0.0322
     70 H          -0.0341    0.8875   -5.1364 H       1  UNL1        0.0322
     71 H           4.0843    4.0422   -0.0091 H       1  UNL1        0.1491
     72 H           3.0098    2.3578    1.4675 H       1  UNL1        0.0513
     73 H           4.1978    1.3499    1.2687 H       1  UNL1        0.0513
     74 H           4.3541    1.6198    3.7621 H       1  UNL1        0.0622
     75 H           5.4585    2.6801    5.7123 H       1  UNL1        0.0624
     76 H           6.5507    7.2868    6.1543 H       1  UNL1        0.0293
     77 H           7.8714    7.4534    4.9557 H       1  UNL1        0.0293
     78 H           6.4332    6.5063    4.5956 H       1  UNL1        0.0293
     79 H           9.9357    4.5027    8.1465 H       1  UNL1        0.0907
     80 H           7.8693    5.0481    3.0330 H       1  UNL1        0.0660
     81 H           5.6914    4.4859   -0.2854 H       1  UNL1        0.0720
     82 H           7.1467    3.9223   -0.5924 H       1  UNL1        0.0720
     83 H           5.3796    1.2657   -0.1339 H       1  UNL1        0.0594
     84 H           6.9752    1.6872    0.3177 H       1  UNL1        0.0594
     85 H           6.6503    2.7047    2.0306 H       1  UNL1        0.0583
     86 H           6.5857    1.3913    3.2261 H       1  UNL1        0.0583
     87 H           8.7633    2.5529    2.7737 H       1  UNL1        0.0583
     88 H           8.9729    1.3269    1.7775 H       1  UNL1        0.0583
     89 H           7.6462    2.3942   -1.0789 H       1  UNL1        0.0583
     90 H           8.7736    2.0619   -1.7520 H       1  UNL1        0.0583
     91 H           7.3460   -0.3334   -1.4623 H       1  UNL1        0.0583
     92 H           8.4690    0.3775   -0.1108 H       1  UNL1        0.0583
     93 H           7.7661    0.2469    2.0422 H       1  UNL1        0.0583
     94 H           7.6800   -0.8188    2.8630 H       1  UNL1        0.0583
     95 H          10.0479    0.0920    2.6264 H       1  UNL1        0.0583
     96 H          10.0107   -1.5088    1.8558 H       1  UNL1        0.0583
     97 H           9.1378   -0.7383   -0.7286 H       1  UNL1        0.0604
     98 H          10.1643    0.0416   -1.5374 H       1  UNL1        0.0604
     99 H          10.8160   -2.5592   -0.6106 H       1  UNL1        0.0589
    100 H           8.6211   -3.7894   -0.4541 H       1  UNL1        0.0532
    101 H           7.6521   -2.3021   -0.5235 H       1  UNL1        0.0532
@<TRIPOS>BOND
     1     1     2    2
     2     3     4    1
     3     4     5    1
     4     5     6    1
     5     5     7    1
     6     7     8    1
     7     3     8    1
     8     8     9   am
     9    11    12    1
    10    11    13    1
    11    11    14    1
    12    10    15    1
    13    15    16   am
    14    16    17    1
    15    16    18    2
    16     9    19    2
    17     2    20   am
    18    20    21    1
    19    21    22    1
    20    22    23   ar
    21    23    24   ar
    22    24    25   ar
    23    25    26    1
    24    26    27   ar
    25    27    28    1
    26    27    29   ar
    27    29    30   ar
    28    30    31   ar
    29    26    31   ar
    30    25    32   ar
    31    32    33   ar
    32    22    33   ar
    33    33    34    1
    34    34    35    1
    35    35    36    1
    36    36    37    1
    37    37    38    1
    38    38    39    1
    39    39    40    1
    40    40    41    1
    41    41    42    1
    42    42    43    1
    43    43    44    1
    44    44    45    1
    45    45    46    1
    46    46    47    1
    47    47    48    1
    48    48    49    2
    49     4    51    1
    50     4    52    1
    51     5    53    1
    52     6    54    1
    53     7    55    1
    54     7    56    1
    55    10    57    1
    56    12    58    1
    57    12    59    1
    58    12    60    1
    59    13    61    1
    60    13    62    1
    61    13    63    1
    62    14    64    1
    63    14    65    1
    64    14    66    1
    65    15    67    1
    66    17    68    1
    67    17    69    1
    68    17    70    1
    69    20    71    1
    70    21    72    1
    71    21    73    1
    72    23    74    1
    73    24    75    1
    74    28    76    1
    75    28    77    1
    76    28    78    1
    77    30    79    1
    78    32    80    1
    79    35    81    1
    80    35    82    1
    81    36    83    1
    82    36    84    1
    83    38    85    1
    84    38    86    1
    85    39    87    1
    86    39    88    1
    87    41    89    1
    88    41    90    1
    89    42    91    1
    90    42    92    1
    91    44    93    1
    92    44    94    1
    93    45    95    1
    94    45    96    1
    95    47    97    1
    96    47    98    1
    97    48    99    1
    98    49   100    1
    99    49   101    1
   100    10    11    1
   101    10     9    1
   102     3    50    1
   103     3     2    1
