@<TRIPOS>MOLECULE
*****
 146 152 0 0 0
SMALL
GASTEIGER

@<TRIPOS>ATOM
      1 C           0.2580   -2.5033    0.1570 C.3     1  UNL1       -0.0579
      2 C           0.6128   -2.6457    1.6267 C.3     1  UNL1       -0.0108
      3 C          -0.5458   -3.2127    2.4430 C.3     1  UNL1       -0.0579
      4 C           1.7162   -3.6808    1.5700 C.3     1  UNL1       -0.0579
      5 C           1.0283   -1.3271    2.3082 C.3     1  UNL1        0.1045
      6 N           0.2606   -0.2237    1.7436 N.am    1  UNL1       -0.3016
      7 C          -1.1518   -0.3269    1.3865 C.2     1  UNL1        0.2394
      8 C          -1.5786    0.3693    0.0805 C.3     1  UNL1        0.1237
      9 O          -1.6133   -0.0042   -1.2535 O.3     1  UNL1       -0.3683
     10 C          -0.2831   -0.3691   -1.7276 C.3     1  UNL1        0.0716
     11 C           1.0217    0.4197   -1.3191 C.3     1  UNL1        0.0711
     12 O           1.2886    1.2014   -0.0530 O.3     1  UNL1       -0.3752
     13 C           0.4652    2.1805    0.6627 C.3     1  UNL1        0.0711
     14 C          -0.0362    3.3278    0.0251 C.3     1  UNL1        0.0711
     15 O           0.1548    3.0141   -1.3032 O.3     1  UNL1       -0.3752
     16 C           1.3417    2.9766   -2.0427 C.3     1  UNL1        0.0711
     17 C           2.2169    4.1613   -2.3441 C.3     1  UNL1        0.0711
     18 O           2.2923    4.9776   -1.1960 O.3     1  UNL1       -0.3762
     19 C           1.0889    5.6180   -0.7733 C.3     1  UNL1        0.0605
     20 C           0.1385    6.5741   -1.5232 C.3     1  UNL1        0.0224
     21 N          -0.4944    6.1634   -2.8112 N.3     1  UNL1       -0.2977
     22 C          -0.6072    4.7362   -2.9295 C.3     1  UNL1        0.0118
     23 C          -1.7261    3.9406   -2.1934 C.3     1  UNL1        0.0120
     24 N          -2.9871    4.1478   -2.7805 N.3     1  UNL1       -0.2955
     25 C          -3.0895    3.4490   -4.0974 C.3     1  UNL1        0.0311
     26 C          -2.1644    3.7697   -5.2329 C.ar    1  UNL1        0.0498
     27 C          -2.4586    4.7686   -6.1429 C.ar    1  UNL1        0.1285
     28 O          -3.6561    5.4444   -6.2216 O.3     1  UNL1       -0.4947
     29 C          -4.6948    5.0949   -5.3097 C.3     1  UNL1        0.0788
     30 C          -1.4394    5.2064   -7.0089 C.ar    1  UNL1       -0.0116
     31 C          -0.0905    4.8629   -6.8279 C.ar    1  UNL1       -0.0090
     32 C           0.9813    5.6111   -7.5358 C.ar    1  UNL1        0.0065
     33 C           1.0888    7.0827   -7.6035 C.ar    1  UNL1       -0.0007
     34 C           2.0446    7.6863   -8.4174 C.ar    1  UNL1        0.0653
     35 C           2.1235    9.0655   -8.4379 C.ar    1  UNL1        0.0405
     36 N           1.4728    9.8517   -7.5478 N.ar    1  UNL1       -0.2625
     37 C           0.6251    9.2318   -6.7025 C.ar    1  UNL1        0.0282
     38 C           0.2968    7.8972   -6.7966 C.ar    1  UNL1       -0.0351
     39 C           1.9185    4.9097   -8.2021 C.ar    1  UNL1        0.0159
     40 N           2.8915    5.4881   -9.0004 N.ar    1  UNL1       -0.3171
     41 C           3.8071    4.6485   -9.7480 C.3     1  UNL1        0.0147
     42 C           2.9979    6.8681   -9.1863 C.ar    1  UNL1        0.2603
     43 O           3.8343    7.4027   -9.9016 O.2     1  UNL1       -0.2670
     44 C           0.1818    3.8346   -5.9444 C.ar    1  UNL1       -0.0116
     45 C          -0.8937    3.1481   -5.3002 C.ar    1  UNL1        0.1285
     46 O          -0.5586    2.0587   -4.5567 O.3     1  UNL1       -0.4947
     47 C          -1.3657    1.4550   -3.5692 C.3     1  UNL1        0.0788
     48 C          -3.0160    5.6167   -2.5079 C.3     1  UNL1        0.0120
     49 C          -1.8768    6.4879   -3.1669 C.3     1  UNL1        0.0118
     50 O          -2.0008   -0.9706    1.8557 O.2     1  UNL1       -0.2733
     51 C           2.5983   -1.0929    2.2499 C.2     1  UNL1        0.2371
     52 N           3.2914   -1.1003    3.4492 N.am    1  UNL1       -0.2858
     53 C           4.4954   -0.2641    3.6609 C.3     1  UNL1        0.1047
     54 C           5.6163   -0.4075    2.6002 C.2     1  UNL1        0.2339
     55 N           5.9785    0.7602    1.9410 N.am    1  UNL1       -0.3097
     56 C           6.9630    0.7456    0.8701 C.3     1  UNL1        0.0369
     57 C           6.3938    1.2171   -0.4459 C.ar    1  UNL1       -0.0303
     58 C           6.4938    2.5545   -0.8558 C.ar    1  UNL1       -0.0565
     59 C           5.9071    2.9826   -2.0550 C.ar    1  UNL1       -0.0532
     60 C           5.3537    2.0527   -2.9409 C.ar    1  UNL1       -0.0095
     61 C           4.9045    2.4227   -4.2916 C.ar    1  UNL1        0.0417
     62 C           3.6913    2.1738   -4.9040 C.ar    1  UNL1        0.0531
     63 C           2.5325    1.6173   -4.2568 C.3     1  UNL1       -0.0212
     64 N           3.4792    2.7024   -6.1450 N.ar    1  UNL1       -0.2520
     65 C           4.6058    3.2198   -6.5492 C.ar    1  UNL1        0.0655
     66 S           5.9087    3.1976   -5.4402 S.2     1  UNL1       -0.0752
     67 C           5.2110    0.7262   -2.5047 C.ar    1  UNL1       -0.0532
     68 C           5.7251    0.3118   -1.2751 C.ar    1  UNL1       -0.0565
     69 O           6.1488   -1.4917    2.3693 O.2     1  UNL1       -0.2738
     70 C           5.0033   -0.7161    5.0513 C.3     1  UNL1        0.0018
     71 C           3.7473   -1.2181    5.7583 C.3     1  UNL1        0.0731
     72 O           3.0023   -0.1161    6.2780 O.3     1  UNL1       -0.3902
     73 C           2.9690   -1.8968    4.6369 C.3     1  UNL1        0.0416
     74 O           3.1779   -0.8626    1.1869 O.2     1  UNL1       -0.2735
     75 H          -0.0657   -3.4123   -0.3509 H       1  UNL1        0.0236
     76 H           1.1167   -2.0838   -0.3922 H       1  UNL1        0.0236
     77 H          -0.6216   -1.8970    0.0350 H       1  UNL1        0.0236
     78 H          -1.0143   -4.0490    1.9327 H       1  UNL1        0.0236
     79 H          -0.2024   -3.4526    3.4464 H       1  UNL1        0.0236
     80 H          -1.3513   -2.5402    2.6787 H       1  UNL1        0.0236
     81 H           2.5513   -3.3451    0.9432 H       1  UNL1        0.0236
     82 H           2.0696   -3.9042    2.5708 H       1  UNL1        0.0236
     83 H           1.3216   -4.5874    1.1008 H       1  UNL1        0.0236
     84 H           0.7383   -1.2591    3.3507 H       1  UNL1        0.0600
     85 H           0.9275    0.3772    1.2637 H       1  UNL1        0.1495
     86 H          -2.2418    1.2141    0.3425 H       1  UNL1        0.0656
     87 H          -0.6187    0.6816   -0.0627 H       1  UNL1        0.0656
     88 H          -0.1529   -1.4092   -1.6273 H       1  UNL1        0.0583
     89 H          -0.3420   -0.3915   -2.8183 H       1  UNL1        0.0583
     90 H           1.9968   -0.0442   -1.5448 H       1  UNL1        0.0583
     91 H           1.0477    0.9469   -2.2547 H       1  UNL1        0.0583
     92 H          -0.5574    1.9426    0.8003 H       1  UNL1        0.0583
     93 H           0.7004    2.3506    1.7072 H       1  UNL1        0.0583
     94 H          -1.1170    3.5457    0.2464 H       1  UNL1        0.0583
     95 H           0.4309    4.0988    0.6094 H       1  UNL1        0.0583
     96 H           2.0435    2.3082   -1.6109 H       1  UNL1        0.0583
     97 H           0.9305    2.5790   -2.9680 H       1  UNL1        0.0583
     98 H           3.1663    3.7052   -2.6115 H       1  UNL1        0.0583
     99 H           1.9787    4.7547   -3.2360 H       1  UNL1        0.0583
    100 H           0.2973    4.9454   -0.8276 H       1  UNL1        0.0572
    101 H           1.1689    5.7679    0.3106 H       1  UNL1        0.0572
    102 H          -0.6955    6.6940   -0.8177 H       1  UNL1        0.0449
    103 H           0.7649    7.4448   -1.6189 H       1  UNL1        0.0449
    104 H          -0.3304    4.5223   -3.9183 H       1  UNL1        0.0439
    105 H           0.3018    4.5099   -2.5676 H       1  UNL1        0.0439
    106 H          -1.7702    4.3699   -1.2019 H       1  UNL1        0.0439
    107 H          -1.7261    2.9219   -1.8213 H       1  UNL1        0.0439
    108 H          -3.1011    2.3647   -4.2402 H       1  UNL1        0.0478
    109 H          -4.1476    3.3155   -4.1895 H       1  UNL1        0.0478
    110 H          -5.0140    4.0568   -5.4499 H       1  UNL1        0.0660
    111 H          -4.4022    5.3268   -4.2960 H       1  UNL1        0.0660
    112 H          -5.5993    5.6773   -5.4087 H       1  UNL1        0.0660
    113 H          -1.6866    5.8967   -7.8053 H       1  UNL1        0.0660
    114 H           2.7422    9.5849   -9.1635 H       1  UNL1        0.0837
    115 H           0.2317    9.8272   -5.8845 H       1  UNL1        0.0830
    116 H          -0.5123    7.5088   -6.1907 H       1  UNL1        0.0639
    117 H           1.9281    3.8230   -8.1566 H       1  UNL1        0.0816
    118 H           3.6850    4.8447  -10.8160 H       1  UNL1        0.0457
    119 H           4.8327    4.9027   -9.4582 H       1  UNL1        0.0457
    120 H           3.6244    3.5877   -9.5534 H       1  UNL1        0.0457
    121 H           1.2291    3.7369   -5.6375 H       1  UNL1        0.0660
    122 H          -2.2409    1.7932   -3.0111 H       1  UNL1        0.0660
    123 H          -1.7283    0.4881   -3.8806 H       1  UNL1        0.0660
    124 H          -0.7370    1.4971   -2.7103 H       1  UNL1        0.0660
    125 H          -2.8630    5.7526   -1.4148 H       1  UNL1        0.0439
    126 H          -4.0199    5.9935   -2.5912 H       1  UNL1        0.0439
    127 H          -2.0351    7.5454   -3.0602 H       1  UNL1        0.0439
    128 H          -1.9139    6.2572   -4.2326 H       1  UNL1        0.0439
    129 H           4.1519    0.7763    3.7153 H       1  UNL1        0.0597
    130 H           5.4795    1.6261    2.0982 H       1  UNL1        0.1491
    131 H           7.7908    1.3975    1.1695 H       1  UNL1        0.0512
    132 H           7.3779   -0.2597    0.7441 H       1  UNL1        0.0512
    133 H           7.0533    3.2722   -0.2599 H       1  UNL1        0.0621
    134 H           5.8763    4.0474   -2.2803 H       1  UNL1        0.0624
    135 H           1.8412    2.4333   -4.3865 H       1  UNL1        0.0293
    136 H           2.0512    0.7309   -4.6454 H       1  UNL1        0.0293
    137 H           2.7741    1.4625   -3.2127 H       1  UNL1        0.0293
    138 H           4.6820    3.6177   -7.5417 H       1  UNL1        0.0907
    139 H           4.6883   -0.0054   -3.1176 H       1  UNL1        0.0624
    140 H           5.6280   -0.7320   -0.9790 H       1  UNL1        0.0621
    141 H           5.4905    0.0989    5.5967 H       1  UNL1        0.0313
    142 H           5.7213   -1.5411    4.9598 H       1  UNL1        0.0313
    143 H           3.9659   -1.8917    6.5932 H       1  UNL1        0.0610
    144 H           2.6766    0.4112    5.5284 H       1  UNL1        0.2098
    145 H           3.3342   -2.9170    4.4687 H       1  UNL1        0.0490
    146 H           1.8963   -1.9311    4.8282 H       1  UNL1        0.0490
@<TRIPOS>BOND
     1     1     2    1
     2     2     3    1
     3     2     4    1
     4     6     7   am
     5     7     8    1
     6     8     9    1
     7     9    10    1
     8    10    11    1
     9    11    12    1
    10    12    13    1
    11    13    14    1
    12    14    15    1
    13    15    16    1
    14    16    17    1
    15    17    18    1
    16    18    19    1
    17    19    20    1
    18    20    21    1
    19    21    22    1
    20    22    23    1
    21    23    24    1
    22    24    25    1
    23    25    26    1
    24    26    27   ar
    25    27    28    1
    26    28    29    1
    27    27    30   ar
    28    30    31   ar
    29    31    32    1
    30    32    33   ar
    31    33    34   ar
    32    34    35   ar
    33    35    36   ar
    34    36    37   ar
    35    37    38   ar
    36    33    38   ar
    37    32    39   ar
    38    39    40   ar
    39    40    41    1
    40    40    42   ar
    41    34    42   ar
    42    42    43    2
    43    31    44   ar
    44    44    45   ar
    45    26    45   ar
    46    45    46    1
    47    46    47    1
    48    24    48    1
    49    48    49    1
    50    21    49    1
    51     7    50    2
    52     5    51    1
    53    51    52   am
    54    52    53    1
    55    53    54    1
    56    54    55   am
    57    55    56    1
    58    56    57    1
    59    57    58   ar
    60    58    59   ar
    61    59    60   ar
    62    60    61    1
    63    61    62   ar
    64    62    63    1
    65    62    64   ar
    66    64    65   ar
    67    65    66   ar
    68    61    66   ar
    69    60    67   ar
    70    67    68   ar
    71    57    68   ar
    72    54    69    2
    73    53    70    1
    74    70    71    1
    75    71    72    1
    76    71    73    1
    77    52    73    1
    78    51    74    2
    79     1    75    1
    80     1    76    1
    81     1    77    1
    82     3    78    1
    83     3    79    1
    84     3    80    1
    85     4    81    1
    86     4    82    1
    87     4    83    1
    88     5    84    1
    89     6    85    1
    90     8    86    1
    91     8    87    1
    92    10    88    1
    93    10    89    1
    94    11    90    1
    95    11    91    1
    96    13    92    1
    97    13    93    1
    98    14    94    1
    99    14    95    1
   100    16    96    1
   101    16    97    1
   102    17    98    1
   103    17    99    1
   104    19   100    1
   105    19   101    1
   106    20   102    1
   107    20   103    1
   108    22   104    1
   109    22   105    1
   110    23   106    1
   111    23   107    1
   112    25   108    1
   113    25   109    1
   114    29   110    1
   115    29   111    1
   116    29   112    1
   117    30   113    1
   118    35   114    1
   119    37   115    1
   120    38   116    1
   121    39   117    1
   122    41   118    1
   123    41   119    1
   124    41   120    1
   125    44   121    1
   126    47   122    1
   127    47   123    1
   128    47   124    1
   129    48   125    1
   130    48   126    1
   131    49   127    1
   132    49   128    1
   133    53   129    1
   134    55   130    1
   135    56   131    1
   136    56   132    1
   137    58   133    1
   138    59   134    1
   139    63   135    1
   140    63   136    1
   141    63   137    1
   142    65   138    1
   143    67   139    1
   144    68   140    1
   145    70   141    1
   146    70   142    1
   147    71   143    1
   148    72   144    1
   149    73   145    1
   150    73   146    1
   151     5     6    1
   152     5     2    1
