@<TRIPOS>MOLECULE
*****
 70 73 0 0 0
SMALL
GASTEIGER

@<TRIPOS>ATOM
      1 O           5.4715    0.0583   -1.7967 O.2     1  UNL1       -0.2738
      2 C           4.5692    0.0603   -0.9586 C.2     1  UNL1        0.2339
      3 N           4.8972    0.2166    0.3578 N.am    1  UNL1       -0.3095
      4 C           4.0198    0.2776    1.5127 C.3     1  UNL1        0.0403
      5 C           4.2884   -0.8353    2.4664 C.ar    1  UNL1        0.0111
      6 C           4.5875   -0.6355    3.8154 C.ar    1  UNL1        0.1221
      7 O           4.6253    0.5826    4.4292 O.3     1  UNL1       -0.5064
      8 C           4.9107   -1.7154    4.6305 C.ar    1  UNL1       -0.0116
      9 C           4.8993   -3.0175    4.1222 C.ar    1  UNL1       -0.0061
     10 C           4.5218   -3.2285    2.7920 C.ar    1  UNL1       -0.0529
     11 C           4.2236   -2.1493    1.9714 C.ar    1  UNL1       -0.0530
     12 C           5.4185   -4.1278    4.9111 C.ar    1  UNL1        0.0418
     13 C           6.4586   -4.9905    4.5979 C.ar    1  UNL1        0.0531
     14 C           7.2731   -4.9853    3.3523 C.3     1  UNL1       -0.0212
     15 N           6.7659   -5.9175    5.5809 N.ar    1  UNL1       -0.2520
     16 C           5.9604   -5.7525    6.6064 C.ar    1  UNL1        0.0655
     17 S           4.7825   -4.5178    6.4543 S.2     1  UNL1       -0.0752
     18 C           3.0809   -0.0154   -1.3455 C.3     1  UNL1        0.1047
     19 N           2.7145    1.1057   -2.2186 N.am    1  UNL1       -0.2858
     20 C           2.6480    2.4665   -1.9269 C.2     1  UNL1        0.2371
     21 C           2.9831    3.0110   -0.4750 C.3     1  UNL1        0.1045
     22 N           4.0819    4.0235   -0.4851 N.am    1  UNL1       -0.3009
     23 C           4.0692    5.3188    0.0409 C.2     1  UNL1        0.2508
     24 C           5.3419    6.0473   -0.0150 C.3     1  UNL1        0.1868
     25 F           6.2582    5.6750    0.9640 F       1  UNL1       -0.2320
     26 C           5.8103    6.5335   -1.3499 C.3     1  UNL1       -0.0068
     27 C           5.4166    7.5323   -0.3032 C.3     1  UNL1       -0.0068
     28 O           3.1591    5.9181    0.6064 O.2     1  UNL1       -0.2723
     29 C           1.7334    3.4942    0.3079 C.3     1  UNL1       -0.0108
     30 C           0.6293    2.4289    0.3917 C.3     1  UNL1       -0.0579
     31 C           2.1230    3.7474    1.8079 C.3     1  UNL1       -0.0579
     32 C           1.0911    4.6808   -0.4658 C.3     1  UNL1       -0.0579
     33 O           2.3306    3.2586   -2.8197 O.2     1  UNL1       -0.2735
     34 C           2.2467    0.5956   -3.5092 C.3     1  UNL1        0.0416
     35 C           1.8363   -0.8537   -3.2334 C.3     1  UNL1        0.0731
     36 O           1.8842   -1.7046   -4.3655 O.3     1  UNL1       -0.3902
     37 C           2.8300   -1.2921   -2.1676 C.3     1  UNL1        0.0018
     38 H           5.8960    0.2890    0.5280 H       1  UNL1        0.1491
     39 H           4.1813    1.2605    1.9559 H       1  UNL1        0.0513
     40 H           2.9669    0.2218    1.2455 H       1  UNL1        0.0513
     41 H           4.2701    1.2912    3.8743 H       1  UNL1        0.2921
     42 H           5.2202   -1.5236    5.6550 H       1  UNL1        0.0660
     43 H           4.5199   -4.2296    2.3650 H       1  UNL1        0.0624
     44 H           3.9781   -2.3407    0.9283 H       1  UNL1        0.0622
     45 H           8.3218   -4.7862    3.5843 H       1  UNL1        0.0293
     46 H           7.1872   -5.9502    2.8455 H       1  UNL1        0.0293
     47 H           6.9528   -4.2152    2.6456 H       1  UNL1        0.0293
     48 H           6.0335   -6.3606    7.4984 H       1  UNL1        0.0907
     49 H           2.3913   -0.0072   -0.5096 H       1  UNL1        0.0597
     50 H           3.3996    2.1812    0.0780 H       1  UNL1        0.0600
     51 H           4.9525    3.7080   -0.8995 H       1  UNL1        0.1496
     52 H           6.8470    6.3547   -1.5798 H       1  UNL1        0.0302
     53 H           5.1267    6.4346   -2.1892 H       1  UNL1        0.0302
     54 H           4.5067    8.1059   -0.4438 H       1  UNL1        0.0302
     55 H           6.1940    8.0726    0.2237 H       1  UNL1        0.0302
     56 H           0.9613    1.5397    0.9343 H       1  UNL1        0.0236
     57 H          -0.2319    2.8442    0.9312 H       1  UNL1        0.0236
     58 H           0.2834    2.1234   -0.5980 H       1  UNL1        0.0236
     59 H           3.0476    4.2977    1.9937 H       1  UNL1        0.0236
     60 H           1.3279    4.2735    2.3418 H       1  UNL1        0.0236
     61 H           2.3198    2.8000    2.3259 H       1  UNL1        0.0236
     62 H           1.7837    5.4216   -0.8698 H       1  UNL1        0.0236
     63 H           0.6031    4.3258   -1.3789 H       1  UNL1        0.0236
     64 H           0.3562    5.2089    0.1417 H       1  UNL1        0.0236
     65 H           3.0713    0.6479   -4.2288 H       1  UNL1        0.0490
     66 H           1.4098    1.1813   -3.9021 H       1  UNL1        0.0490
     67 H           0.8172   -0.8844   -2.8297 H       1  UNL1        0.0610
     68 H           2.8018   -1.7610   -4.6853 H       1  UNL1        0.2098
     69 H           2.4169   -2.0959   -1.5458 H       1  UNL1        0.0313
     70 H           3.7405   -1.7027   -2.6224 H       1  UNL1        0.0313
@<TRIPOS>BOND
     1     1     2    2
     2     2     3   am
     3     3     4    1
     4     4     5    1
     5     5     6   ar
     6     6     7    1
     7     6     8   ar
     8     8     9   ar
     9     9    10   ar
    10    10    11   ar
    11     5    11   ar
    12     9    12    1
    13    12    13   ar
    14    13    14    1
    15    13    15   ar
    16    15    16   ar
    17    16    17   ar
    18    12    17   ar
    19    18    19    1
    20    19    20   am
    21    20    21    1
    22    21    22    1
    23    22    23   am
    24    23    24    1
    25    24    25    1
    26    24    26    1
    27    26    27    1
    28    24    27    1
    29    23    28    2
    30    21    29    1
    31    29    30    1
    32    29    31    1
    33    29    32    1
    34    20    33    2
    35    19    34    1
    36    34    35    1
    37    35    36    1
    38    35    37    1
    39    18    37    1
    40     3    38    1
    41     4    39    1
    42     4    40    1
    43     7    41    1
    44     8    42    1
    45    10    43    1
    46    11    44    1
    47    14    45    1
    48    14    46    1
    49    14    47    1
    50    16    48    1
    51    21    50    1
    52    22    51    1
    53    26    52    1
    54    26    53    1
    55    27    54    1
    56    27    55    1
    57    30    56    1
    58    30    57    1
    59    30    58    1
    60    31    59    1
    61    31    60    1
    62    31    61    1
    63    32    62    1
    64    32    63    1
    65    32    64    1
    66    34    65    1
    67    34    66    1
    68    35    67    1
    69    36    68    1
    70    37    69    1
    71    37    70    1
    72    18    49    1
    73    18     2    1
