@<TRIPOS>MOLECULE
*****
 93 96 0 0 0
SMALL
GASTEIGER

@<TRIPOS>ATOM
      1 C          -2.6274   -7.8213    5.5795 C.3     1  UNL1       -0.0212
      2 C          -1.4932   -8.6239    6.1144 C.ar    1  UNL1        0.0531
      3 C          -0.2062   -8.8252    5.5780 C.ar    1  UNL1        0.0418
      4 S           0.7064   -9.7511    6.7105 S.2     1  UNL1       -0.0752
      5 C          -0.5849   -9.6669    7.8329 C.ar    1  UNL1        0.0655
      6 N          -1.6690   -9.0600    7.4206 N.ar    1  UNL1       -0.2520
      7 C           0.4245   -8.4267    4.2925 C.ar    1  UNL1       -0.0061
      8 C           0.4303   -9.3089    3.2606 C.ar    1  UNL1       -0.0529
      9 C           0.8465   -8.8431    2.0113 C.ar    1  UNL1       -0.0530
     10 C           1.2537   -7.5138    1.6950 C.ar    1  UNL1        0.0113
     11 C           1.7181   -7.0738    0.3236 C.3     1  UNL1        0.0403
     12 N           3.0837   -7.5241    0.0029 N.am    1  UNL1       -0.3095
     13 C           3.3281   -7.9617   -1.2778 C.2     1  UNL1        0.2339
     14 C           4.4414   -9.0014   -1.5691 C.3     1  UNL1        0.1047
     15 C           5.8164   -8.4698   -1.9482 C.3     1  UNL1        0.0018
     16 C           6.2689   -9.4756   -3.0093 C.3     1  UNL1        0.0731
     17 O           6.8224  -10.6395   -2.3772 O.3     1  UNL1       -0.3902
     18 C           4.9734   -9.8156   -3.7550 C.3     1  UNL1        0.0416
     19 N           3.9607   -9.8062   -2.7127 N.am    1  UNL1       -0.2858
     20 C           2.7007  -10.3898   -2.9051 C.2     1  UNL1        0.2371
     21 C           1.6695  -10.5194   -1.7031 C.3     1  UNL1        0.1045
     22 C           2.2126  -11.4058   -0.5153 C.3     1  UNL1       -0.0108
     23 C           3.2111  -12.4419   -1.0177 C.3     1  UNL1       -0.0579
     24 C           2.9214  -10.5922    0.5711 C.3     1  UNL1       -0.0579
     25 C           1.0449  -12.1011    0.2172 C.3     1  UNL1       -0.0579
     26 N           0.3407  -11.0022   -2.1849 N.am    1  UNL1       -0.3009
     27 C          -0.7947  -10.1828   -2.1075 C.2     1  UNL1        0.2508
     28 C          -2.1369  -10.7768   -2.4717 C.3     1  UNL1        0.1868
     29 F          -3.1946  -10.2667   -1.7059 F       1  UNL1       -0.2320
     30 C          -2.4685  -11.0322   -3.9227 C.3     1  UNL1       -0.0068
     31 C          -2.4147  -12.1754   -2.9526 C.3     1  UNL1       -0.0068
     32 O          -0.7540   -9.0491   -1.7155 O.2     1  UNL1       -0.2723
     33 O           2.4183  -10.8955   -3.9996 O.2     1  UNL1       -0.2735
     34 O           2.5395   -7.6557   -2.1775 O.2     1  UNL1       -0.2738
     35 C           1.2087   -6.6096    2.7211 C.ar    1  UNL1        0.1257
     36 O           1.2812   -5.2675    2.4149 O.3     1  UNL1       -0.4916
     37 C           0.8897   -4.2137    3.3252 C.3     1  UNL1        0.0896
     38 C          -0.6105   -4.0726    3.5969 C.3     1  UNL1       -0.0185
     39 C          -1.1129   -5.3103    4.2597 C.3     1  UNL1       -0.0454
     40 C          -0.5025   -5.4580    5.6852 C.3     1  UNL1       -0.0015
     41 C          -0.8573   -4.5735    6.8480 C.3     1  UNL1        0.1584
     42 O          -2.2270   -4.5985    7.1886 O.3     1  UNL1       -0.3545
     43 C          -3.1002   -4.3317    6.1085 C.3     1  UNL1        0.0394
     44 O          -0.0194   -4.9327    7.9785 O.3     1  UNL1       -0.3545
     45 C          -0.1793   -6.2724    8.4430 C.3     1  UNL1        0.0394
     46 C           1.0006   -7.1649    3.9935 C.ar    1  UNL1       -0.0114
     47 H          -3.5904   -8.3299    5.5673 H       1  UNL1        0.0293
     48 H          -2.7595   -6.9705    6.2550 H       1  UNL1        0.0293
     49 H          -2.4216   -7.4729    4.5705 H       1  UNL1        0.0293
     50 H          -0.5140  -10.0719    8.8335 H       1  UNL1        0.0907
     51 H           0.1383  -10.3458    3.4040 H       1  UNL1        0.0624
     52 H           0.7958   -9.6084    1.2654 H       1  UNL1        0.0622
     53 H           0.9948   -7.4575   -0.4018 H       1  UNL1        0.0513
     54 H           1.7108   -5.9848    0.2045 H       1  UNL1        0.0513
     55 H           3.8173   -7.3766    0.6848 H       1  UNL1        0.1491
     56 H           4.7322   -9.7133   -0.8245 H       1  UNL1        0.0597
     57 H           6.4892   -8.4795   -1.0769 H       1  UNL1        0.0313
     58 H           5.7438   -7.4504   -2.3254 H       1  UNL1        0.0313
     59 H           7.0461   -9.0644   -3.6552 H       1  UNL1        0.0610
     60 H           6.0958  -11.1934   -2.0404 H       1  UNL1        0.2098
     61 H           4.7120   -9.0233   -4.4611 H       1  UNL1        0.0490
     62 H           4.9995  -10.7873   -4.2554 H       1  UNL1        0.0490
     63 H           1.4474   -9.5339   -1.3098 H       1  UNL1        0.0600
     64 H           4.0853  -11.9672   -1.4703 H       1  UNL1        0.0236
     65 H           3.5980  -13.0400   -0.1909 H       1  UNL1        0.0236
     66 H           2.7539  -13.0888   -1.7687 H       1  UNL1        0.0236
     67 H           2.4376   -9.6465    0.6331 H       1  UNL1        0.0236
     68 H           2.9887  -11.0830    1.5402 H       1  UNL1        0.0236
     69 H           3.9328  -10.2866    0.4372 H       1  UNL1        0.0236
     70 H           0.3001  -11.3794    0.5675 H       1  UNL1        0.0236
     71 H           0.5194  -12.8099   -0.4243 H       1  UNL1        0.0236
     72 H           1.4067  -12.6435    1.0959 H       1  UNL1        0.0236
     73 H           0.2891  -11.9134   -2.6094 H       1  UNL1        0.1496
     74 H          -3.4390  -10.7092   -4.2832 H       1  UNL1        0.0302
     75 H          -1.6748  -10.9399   -4.6545 H       1  UNL1        0.0302
     76 H          -1.6194  -12.8983   -3.0432 H       1  UNL1        0.0302
     77 H          -3.3630  -12.6075   -2.6422 H       1  UNL1        0.0302
     78 H           1.4708   -4.2929    4.2453 H       1  UNL1        0.0696
     79 H           1.1871   -3.2559    2.8829 H       1  UNL1        0.0696
     80 H          -0.8261   -3.2245    4.2578 H       1  UNL1        0.0298
     81 H          -1.1879   -3.9183    2.6790 H       1  UNL1        0.0298
     82 H          -2.1841   -5.3721    4.1447 H       1  UNL1        0.0268
     83 H          -0.9240   -6.1479    3.5920 H       1  UNL1        0.0268
     84 H          -0.6478   -6.4711    5.9969 H       1  UNL1        0.0314
     85 H           0.5786   -5.3185    5.7166 H       1  UNL1        0.0314
     86 H          -0.5398   -3.5610    6.5797 H       1  UNL1        0.0909
     87 H          -2.7739   -3.4710    5.5160 H       1  UNL1        0.0525
     88 H          -3.2120   -5.2096    5.4865 H       1  UNL1        0.0525
     89 H          -4.1143   -4.2092    6.4669 H       1  UNL1        0.0525
     90 H          -1.2310   -6.4908    8.6374 H       1  UNL1        0.0525
     91 H           0.2433   -6.9836    7.7330 H       1  UNL1        0.0525
     92 H           0.3948   -6.4217    9.3623 H       1  UNL1        0.0525
     93 H           1.2580   -6.5184    4.7860 H       1  UNL1        0.0660
@<TRIPOS>BOND
     1     1     2    1
     2     2     3   ar
     3     3     4   ar
     4     4     5   ar
     5     5     6   ar
     6     2     6   ar
     7     3     7    1
     8     7     8   ar
     9     8     9   ar
    10     9    10   ar
    11    10    11    1
    12    11    12    1
    13    12    13   am
    14    14    15    1
    15    15    16    1
    16    16    17    1
    17    16    18    1
    18    18    19    1
    19    14    19    1
    20    19    20   am
    21    22    23    1
    22    22    24    1
    23    22    25    1
    24    21    26    1
    25    26    27   am
    26    27    28    1
    27    28    29    1
    28    28    30    1
    29    30    31    1
    30    28    31    1
    31    27    32    2
    32    20    33    2
    33    13    34    2
    34    10    35   ar
    35    35    36    1
    36    36    37    1
    37    37    38    1
    38    38    39    1
    39    39    40    1
    40    40    41    1
    41    41    42    1
    42    42    43    1
    43    41    44    1
    44    44    45    1
    45    35    46   ar
    46     7    46   ar
    47     1    47    1
    48     1    48    1
    49     1    49    1
    50     5    50    1
    51     8    51    1
    52     9    52    1
    53    11    53    1
    54    11    54    1
    55    12    55    1
    56    15    57    1
    57    15    58    1
    58    16    59    1
    59    17    60    1
    60    18    61    1
    61    18    62    1
    62    21    63    1
    63    23    64    1
    64    23    65    1
    65    23    66    1
    66    24    67    1
    67    24    68    1
    68    24    69    1
    69    25    70    1
    70    25    71    1
    71    25    72    1
    72    26    73    1
    73    30    74    1
    74    30    75    1
    75    31    76    1
    76    31    77    1
    77    37    78    1
    78    37    79    1
    79    38    80    1
    80    38    81    1
    81    39    82    1
    82    39    83    1
    83    40    84    1
    84    40    85    1
    85    41    86    1
    86    43    87    1
    87    43    88    1
    88    43    89    1
    89    45    90    1
    90    45    91    1
    91    45    92    1
    92    46    93    1
    93    21    22    1
    94    21    20    1
    95    14    56    1
    96    14    13    1
