@<TRIPOS>MOLECULE
*****
 134 141 0 0 0
SMALL
GASTEIGER

@<TRIPOS>ATOM
      1 C          -2.6604   -7.7230    5.5805 C.3     1  UNL1       -0.0212
      2 C          -1.5382   -8.5441    6.1357 C.ar    1  UNL1        0.0531
      3 C          -0.2675   -8.7929    5.5704 C.ar    1  UNL1        0.0418
      4 S           0.6710   -9.6732    6.7155 S.2     1  UNL1       -0.0752
      5 C          -0.6040   -9.5651    7.8526 C.ar    1  UNL1        0.0655
      6 N          -1.6665   -8.8963    7.4734 N.ar    1  UNL1       -0.2520
      7 C           0.3467   -8.4030    4.2734 C.ar    1  UNL1       -0.0061
      8 C           0.4364   -9.3071    3.2801 C.ar    1  UNL1       -0.0529
      9 C           0.8843   -8.8457    2.0404 C.ar    1  UNL1       -0.0530
     10 C           1.2412   -7.5068    1.6820 C.ar    1  UNL1        0.0113
     11 C           1.7202   -7.0695    0.3222 C.3     1  UNL1        0.0403
     12 N           3.0879   -7.5169    0.0123 N.am    1  UNL1       -0.3095
     13 C           3.3245   -7.9885   -1.2563 C.2     1  UNL1        0.2339
     14 C           4.4498   -9.0190   -1.5541 C.3     1  UNL1        0.1047
     15 C           5.8206   -8.4828   -1.9328 C.3     1  UNL1        0.0018
     16 C           6.2704   -9.4833   -3.0009 C.3     1  UNL1        0.0731
     17 O           6.8223  -10.6556   -2.3822 O.3     1  UNL1       -0.3902
     18 C           4.9744   -9.8183   -3.7478 C.3     1  UNL1        0.0416
     19 N           3.9629   -9.8140   -2.7042 N.am    1  UNL1       -0.2858
     20 C           2.6953  -10.3850   -2.9025 C.2     1  UNL1        0.2371
     21 C           1.6591  -10.5148   -1.7030 C.3     1  UNL1        0.1045
     22 C           2.2085  -11.3918   -0.5184 C.3     1  UNL1       -0.0108
     23 C           3.2099  -12.4202   -1.0209 C.3     1  UNL1       -0.0579
     24 C           2.9150  -10.5701    0.5564 C.3     1  UNL1       -0.0579
     25 C           1.0453  -12.0821    0.2204 C.3     1  UNL1       -0.0579
     26 N           0.3336  -11.0002   -2.1845 N.am    1  UNL1       -0.3009
     27 C          -0.7972  -10.1971   -2.1152 C.2     1  UNL1        0.2508
     28 C          -2.1390  -10.7744   -2.4707 C.3     1  UNL1        0.1868
     29 F          -3.1909  -10.2668   -1.6980 F       1  UNL1       -0.2320
     30 C          -2.4720  -11.0312   -3.9236 C.3     1  UNL1       -0.0068
     31 C          -2.4215  -12.1744   -2.9517 C.3     1  UNL1       -0.0068
     32 O          -0.7602   -9.0379   -1.7139 O.2     1  UNL1       -0.2723
     33 O           2.4110  -10.8855   -3.9992 O.2     1  UNL1       -0.2735
     34 O           2.5121   -7.7166   -2.1473 O.2     1  UNL1       -0.2738
     35 C           1.0943   -6.5799    2.6605 C.ar    1  UNL1        0.1257
     36 O           1.1738   -5.2347    2.3986 O.3     1  UNL1       -0.4916
     37 C           0.7893   -4.2265    3.3710 C.3     1  UNL1        0.0896
     38 C          -0.7110   -4.1351    3.6838 C.3     1  UNL1       -0.0182
     39 C          -1.2307   -5.3428    4.4429 C.3     1  UNL1       -0.0417
     40 C          -0.4310   -5.6614    5.7443 C.3     1  UNL1        0.0241
     41 C          -0.9355   -4.8151    6.7662 C.2     1  UNL1        0.2133
     42 N          -1.3641   -5.4177    7.9025 N.am    1  UNL1       -0.3100
     43 C          -1.6037   -4.4610    8.9259 C.3     1  UNL1        0.0485
     44 C          -2.9332   -3.6800    8.7505 C.3     1  UNL1        0.0189
     45 N          -3.0796   -3.7191   10.2171 N.3     1  UNL1       -0.2945
     46 C          -2.5569   -2.4733   10.8189 C.3     1  UNL1        0.0277
     47 C          -1.0692   -2.1824   10.7991 C.ar    1  UNL1        0.0117
     48 C          -0.1803   -2.3586   11.8585 C.ar    1  UNL1        0.1253
     49 O          -0.4099   -2.8518   13.1176 O.3     1  UNL1       -0.4948
     50 C          -1.7054   -3.3007   13.4992 C.3     1  UNL1        0.0788
     51 C           1.1727   -2.0483   11.6243 C.ar    1  UNL1       -0.0084
     52 C           1.6847   -1.7781   10.3322 C.ar    1  UNL1        0.0292
     53 C           3.1478   -1.8060   10.1151 C.ar    1  UNL1        0.0099
     54 C           4.0097   -2.9605   10.4322 C.ar    1  UNL1       -0.0006
     55 C           5.3693   -2.9138   10.1430 C.ar    1  UNL1        0.0653
     56 C           6.1401   -4.0304   10.4074 C.ar    1  UNL1        0.0405
     57 N           5.6125   -5.2316   10.7475 N.ar    1  UNL1       -0.2625
     58 C           4.2801   -5.2714   10.9401 C.ar    1  UNL1        0.0282
     59 C           3.4756   -4.1526   10.9249 C.ar    1  UNL1       -0.0351
     60 C           3.7172   -0.7668    9.4781 C.ar    1  UNL1        0.0160
     61 N           5.0611   -0.7086    9.1680 N.ar    1  UNL1       -0.3171
     62 C           5.5866    0.4558    8.4848 C.3     1  UNL1        0.0147
     63 C           5.9541   -1.7302    9.4897 C.ar    1  UNL1        0.2603
     64 O           7.1538   -1.7040    9.2308 O.2     1  UNL1       -0.2670
     65 C           0.8084   -1.6339    9.2632 C.ar    1  UNL1        0.1284
     66 O           1.3359   -1.4328    8.0100 O.3     1  UNL1       -0.4945
     67 C           0.4184   -1.2051    6.9558 C.3     1  UNL1        0.0788
     68 C          -0.5480   -1.7480    9.5429 C.ar    1  UNL1       -0.0115
     69 C          -2.1414   -4.8811   10.2636 C.3     1  UNL1        0.0189
     70 O          -0.8926   -3.6515    6.5472 O.2     1  UNL1       -0.2758
     71 C           0.8415   -7.1279    3.9094 C.ar    1  UNL1       -0.0114
     72 H          -3.6271   -8.2166    5.5935 H       1  UNL1        0.0293
     73 H          -2.7854   -6.8005    6.1666 H       1  UNL1        0.0293
     74 H          -2.4517   -7.4643    4.5473 H       1  UNL1        0.0293
     75 H          -0.5334  -10.0113    8.8360 H       1  UNL1        0.0907
     76 H           0.1790  -10.3493    3.4340 H       1  UNL1        0.0624
     77 H           0.8823   -9.6483    1.3422 H       1  UNL1        0.0622
     78 H           0.9917   -7.4529   -0.3971 H       1  UNL1        0.0513
     79 H           1.7119   -5.9796    0.2046 H       1  UNL1        0.0513
     80 H           3.8195   -7.3501    0.6916 H       1  UNL1        0.1491
     81 H           4.7669   -9.7383   -0.8234 H       1  UNL1        0.0597
     82 H           6.4970   -8.4978   -1.0636 H       1  UNL1        0.0313
     83 H           5.7394   -7.4616   -2.3005 H       1  UNL1        0.0313
     84 H           7.0480   -9.0663   -3.6420 H       1  UNL1        0.0610
     85 H           6.0968  -11.1989   -2.0260 H       1  UNL1        0.2098
     86 H           4.7136   -9.0219   -4.4494 H       1  UNL1        0.0490
     87 H           4.9999  -10.7869   -4.2540 H       1  UNL1        0.0490
     88 H           1.4226   -9.5362   -1.3007 H       1  UNL1        0.0600
     89 H           4.0791  -11.9408   -1.4765 H       1  UNL1        0.0236
     90 H           3.6054  -13.0112   -0.1942 H       1  UNL1        0.0236
     91 H           2.7519  -13.0667   -1.7709 H       1  UNL1        0.0236
     92 H           2.4123   -9.6370    0.6146 H       1  UNL1        0.0236
     93 H           3.0397  -11.0625    1.5182 H       1  UNL1        0.0236
     94 H           3.8964  -10.2020    0.4069 H       1  UNL1        0.0236
     95 H           0.3064  -11.3559    0.5756 H       1  UNL1        0.0236
     96 H           0.5140  -12.7855   -0.4217 H       1  UNL1        0.0236
     97 H           1.4129  -12.6276    1.0941 H       1  UNL1        0.0236
     98 H           0.2827  -11.9213   -2.5949 H       1  UNL1        0.1496
     99 H          -3.4406  -10.7110   -4.2912 H       1  UNL1        0.0302
    100 H          -1.6787  -10.9391   -4.6561 H       1  UNL1        0.0302
    101 H          -1.6317  -12.9029   -3.0405 H       1  UNL1        0.0302
    102 H          -3.3709  -12.6038   -2.6399 H       1  UNL1        0.0302
    103 H           1.4038   -4.3118    4.2720 H       1  UNL1        0.0696
    104 H           1.0665   -3.2498    2.9527 H       1  UNL1        0.0696
    105 H          -0.9363   -3.2398    4.2732 H       1  UNL1        0.0298
    106 H          -1.2874   -4.0317    2.7574 H       1  UNL1        0.0298
    107 H          -2.2941   -5.1963    4.6671 H       1  UNL1        0.0271
    108 H          -1.2477   -6.1475    3.7021 H       1  UNL1        0.0271
    109 H          -0.4818   -6.6477    6.1399 H       1  UNL1        0.0358
    110 H           0.6331   -5.4029    5.8354 H       1  UNL1        0.0358
    111 H          -1.3338   -6.4189    8.0439 H       1  UNL1        0.1491
    112 H          -0.6634   -3.9277    9.0385 H       1  UNL1        0.0523
    113 H          -2.9286   -2.6912    8.2769 H       1  UNL1        0.0445
    114 H          -3.7129   -4.2447    8.2221 H       1  UNL1        0.0445
    115 H          -3.0662   -1.5896   10.4137 H       1  UNL1        0.0477
    116 H          -2.9612   -2.4818   11.8151 H       1  UNL1        0.0477
    117 H          -2.3893   -2.4505   13.5676 H       1  UNL1        0.0660
    118 H          -2.0745   -4.1001   12.8503 H       1  UNL1        0.0660
    119 H          -1.6854   -3.7320   14.5020 H       1  UNL1        0.0660
    120 H           1.8730   -2.0828   12.4581 H       1  UNL1        0.0661
    121 H           7.2221   -3.9995   10.3261 H       1  UNL1        0.0837
    122 H           3.8394   -6.2547   11.0702 H       1  UNL1        0.0830
    123 H           2.4412   -4.2504   11.2300 H       1  UNL1        0.0639
    124 H           3.1159    0.0790    9.1499 H       1  UNL1        0.0816
    125 H           6.3513    0.9097    9.1212 H       1  UNL1        0.0457
    126 H           6.0478    0.1421    7.5430 H       1  UNL1        0.0457
    127 H           4.8021    1.1896    8.2784 H       1  UNL1        0.0457
    128 H          -0.2645   -2.0040    6.9362 H       1  UNL1        0.0660
    129 H          -0.2239   -0.3392    7.1069 H       1  UNL1        0.0660
    130 H           0.9123   -1.1981    5.9799 H       1  UNL1        0.0660
    131 H          -1.2436   -1.6833    8.7159 H       1  UNL1        0.0658
    132 H          -2.6280   -5.8602   10.2376 H       1  UNL1        0.0445
    133 H          -1.3686   -4.9082   11.0357 H       1  UNL1        0.0445
    134 H           1.0759   -6.4058    4.6212 H       1  UNL1        0.0660
@<TRIPOS>BOND
     1     1     2    1
     2     2     3   ar
     3     3     4   ar
     4     4     5   ar
     5     5     6   ar
     6     2     6   ar
     7     3     7    1
     8     7     8   ar
     9     8     9   ar
    10     9    10   ar
    11    10    11    1
    12    11    12    1
    13    12    13   am
    14    14    15    1
    15    15    16    1
    16    16    17    1
    17    16    18    1
    18    18    19    1
    19    14    19    1
    20    19    20   am
    21    22    23    1
    22    22    24    1
    23    22    25    1
    24    21    26    1
    25    26    27   am
    26    27    28    1
    27    28    29    1
    28    28    30    1
    29    30    31    1
    30    28    31    1
    31    27    32    2
    32    20    33    2
    33    13    34    2
    34    10    35   ar
    35    35    36    1
    36    36    37    1
    37    37    38    1
    38    38    39    1
    39    39    40    1
    40    40    41    1
    41    41    42   am
    42    42    43    1
    43    43    44    1
    44    44    45    1
    45    45    46    1
    46    46    47    1
    47    47    48   ar
    48    48    49    1
    49    49    50    1
    50    48    51   ar
    51    51    52   ar
    52    52    53    1
    53    53    54   ar
    54    54    55   ar
    55    55    56   ar
    56    56    57   ar
    57    57    58   ar
    58    58    59   ar
    59    54    59   ar
    60    53    60   ar
    61    60    61   ar
    62    61    62    1
    63    61    63   ar
    64    55    63   ar
    65    63    64    2
    66    52    65   ar
    67    65    66    1
    68    66    67    1
    69    65    68   ar
    70    47    68   ar
    71    45    69    1
    72    43    69    1
    73    41    70    2
    74    35    71   ar
    75     7    71   ar
    76     1    72    1
    77     1    73    1
    78     1    74    1
    79     5    75    1
    80     8    76    1
    81     9    77    1
    82    11    78    1
    83    11    79    1
    84    12    80    1
    85    15    82    1
    86    15    83    1
    87    16    84    1
    88    17    85    1
    89    18    86    1
    90    18    87    1
    91    21    88    1
    92    23    89    1
    93    23    90    1
    94    23    91    1
    95    24    92    1
    96    24    93    1
    97    24    94    1
    98    25    95    1
    99    25    96    1
   100    25    97    1
   101    26    98    1
   102    30    99    1
   103    30   100    1
   104    31   101    1
   105    31   102    1
   106    37   103    1
   107    37   104    1
   108    38   105    1
   109    38   106    1
   110    39   107    1
   111    39   108    1
   112    40   109    1
   113    40   110    1
   114    42   111    1
   115    43   112    1
   116    44   113    1
   117    44   114    1
   118    46   115    1
   119    46   116    1
   120    50   117    1
   121    50   118    1
   122    50   119    1
   123    51   120    1
   124    56   121    1
   125    58   122    1
   126    59   123    1
   127    60   124    1
   128    62   125    1
   129    62   126    1
   130    62   127    1
   131    67   128    1
   132    67   129    1
   133    67   130    1
   134    68   131    1
   135    69   132    1
   136    69   133    1
   137    71   134    1
   138    21    22    1
   139    21    20    1
   140    14    81    1
   141    14    13    1
