@<TRIPOS>MOLECULE
*****
 138 145 0 0 0
SMALL
GASTEIGER

@<TRIPOS>ATOM
      1 C          -3.9461    1.9594   -6.7353 C.3     1  UNL1        0.0788
      2 O          -4.1982    2.6085   -5.4067 O.3     1  UNL1       -0.4948
      3 C          -3.2443    3.2357   -4.7272 C.ar    1  UNL1        0.1253
      4 C          -2.2577    3.8863   -5.4336 C.ar    1  UNL1       -0.0084
      5 C          -1.1156    4.5512   -4.9131 C.ar    1  UNL1        0.0292
      6 C          -0.3024    5.1240   -5.8977 C.ar    1  UNL1        0.0099
      7 C           1.0645    4.8693   -6.2143 C.ar    1  UNL1       -0.0006
      8 C           1.7585    5.8507   -6.8633 C.ar    1  UNL1        0.0653
      9 C           3.1209    5.7375   -6.9528 C.ar    1  UNL1        0.0405
     10 N           3.8070    4.6575   -6.5606 N.ar    1  UNL1       -0.2625
     11 C           3.0903    3.7074   -5.9924 C.ar    1  UNL1        0.0282
     12 C           1.7740    3.8299   -5.6827 C.ar    1  UNL1       -0.0351
     13 C          -0.9560    6.1713   -6.3842 C.ar    1  UNL1        0.0160
     14 N          -0.3193    7.0532   -7.1788 N.ar    1  UNL1       -0.3171
     15 C          -1.0948    8.0713   -7.8060 C.3     1  UNL1        0.0147
     16 C           1.0379    6.9765   -7.4440 C.ar    1  UNL1        0.2603
     17 O           1.6446    7.7551   -8.1657 O.2     1  UNL1       -0.2670
     18 C          -0.9655    4.9077   -3.6218 C.ar    1  UNL1        0.1284
     19 O           0.2053    5.2699   -2.9381 O.3     1  UNL1       -0.4945
     20 C           1.2977    5.8764   -3.5897 C.3     1  UNL1        0.0788
     21 C          -2.0788    4.4089   -2.9136 C.ar    1  UNL1       -0.0115
     22 C          -3.0313    3.1304   -3.3928 C.ar    1  UNL1        0.0117
     23 C          -3.4649    1.5029   -2.3390 C.3     1  UNL1        0.0277
     24 N          -1.9985    0.3232   -1.6917 N.3     1  UNL1       -0.2956
     25 C          -1.0809   -0.2125   -3.2489 C.3     1  UNL1        0.0120
     26 C          -0.4961    1.3708   -4.5119 C.3     1  UNL1        0.0117
     27 N           0.6357    2.5313   -3.3800 N.3     1  UNL1       -0.2999
     28 C           1.8225    1.7117   -2.2190 C.3     1  UNL1       -0.0010
     29 C           1.6340    0.2075   -1.4613 C.3     1  UNL1       -0.0401
     30 C           1.1862   -1.1542   -2.1877 C.3     1  UNL1       -0.0488
     31 C           1.4869   -2.2424   -3.2222 C.3     1  UNL1       -0.0186
     32 C           2.4431   -2.7637   -2.3271 C.3     1  UNL1        0.0896
     33 O           1.5795   -3.6148   -1.5088 O.3     1  UNL1       -0.4916
     34 C           0.7241   -3.2068   -0.4702 C.ar    1  UNL1        0.1257
     35 C           1.1124   -3.3956    0.7968 C.ar    1  UNL1       -0.0114
     36 C           0.1883   -3.0947    1.8376 C.ar    1  UNL1       -0.0061
     37 C           0.0751   -3.9989    2.9191 C.ar    1  UNL1        0.0418
     38 C          -0.9919   -4.8257    3.2296 C.ar    1  UNL1        0.0531
     39 C          -2.2816   -5.0033    2.4892 C.3     1  UNL1       -0.0212
     40 N          -0.7826   -5.5392    4.3866 N.ar    1  UNL1       -0.2520
     41 C           0.3980   -5.2240    4.8753 C.ar    1  UNL1        0.0655
     42 S           1.3279   -4.0737    4.0351 S.2     1  UNL1       -0.0752
     43 C          -0.8941   -2.2426    1.7563 C.ar    1  UNL1       -0.0529
     44 C          -1.3725   -2.1849    0.5365 C.ar    1  UNL1       -0.0530
     45 C          -0.6444   -2.7751   -0.5068 C.ar    1  UNL1        0.0113
     46 C          -1.2664   -2.1365   -1.6245 C.3     1  UNL1        0.0403
     47 N          -2.3981   -2.4766   -2.4540 N.am    1  UNL1       -0.3095
     48 C          -3.3207   -1.5961   -2.8312 C.2     1  UNL1        0.2339
     49 C          -4.2489   -1.4019   -3.8931 C.3     1  UNL1        0.1047
     50 C          -5.5817   -1.6801   -4.4740 C.3     1  UNL1        0.0018
     51 C          -6.1717   -0.3831   -4.9378 C.3     1  UNL1        0.0731
     52 O          -6.7675    0.4965   -3.9704 O.3     1  UNL1       -0.3902
     53 C          -4.9541    0.2369   -5.4099 C.3     1  UNL1        0.0416
     54 N          -3.8707   -0.0586   -4.5509 N.am    1  UNL1       -0.2858
     55 C          -2.6586    0.7944   -4.6031 C.2     1  UNL1        0.2371
     56 C          -1.5580    1.4136   -3.1007 C.3     1  UNL1        0.1045
     57 C          -2.0808    2.4037   -1.1979 C.3     1  UNL1       -0.0108
     58 C          -3.6364    3.3802   -1.2380 C.3     1  UNL1       -0.0579
     59 C          -2.7173    0.9892    0.1495 C.3     1  UNL1       -0.0579
     60 C          -0.2862    3.1312   -0.4035 C.3     1  UNL1       -0.0579
     61 N           0.3224    0.6932   -3.2452 N.am    1  UNL1       -0.3009
     62 C           0.9641   -0.1996   -4.2590 C.2     1  UNL1        0.2508
     63 C           2.4547   -0.1111   -4.2606 C.3     1  UNL1        0.1868
     64 F           3.2434   -0.2728   -3.1037 F       1  UNL1       -0.2320
     65 C           2.9574   -0.4612   -5.5786 C.3     1  UNL1       -0.0068
     66 C           2.9668    0.9501   -5.0814 C.3     1  UNL1       -0.0068
     67 O           0.2990   -0.9351   -5.0071 O.2     1  UNL1       -0.2723
     68 O          -2.1578    1.0892   -5.7041 O.2     1  UNL1       -0.2735
     69 O          -3.6905   -0.6931   -2.0929 O.2     1  UNL1       -0.2738
     70 C          -0.2119    2.6261   -2.2546 C.3     1  UNL1        0.0117
     71 C          -0.7116    1.1763   -0.9424 C.3     1  UNL1        0.0120
     72 H          -4.9128    1.6209   -7.0967 H       1  UNL1        0.0660
     73 H          -3.4194    0.9546   -6.8443 H       1  UNL1        0.0660
     74 H          -3.4998    2.6142   -7.4221 H       1  UNL1        0.0660
     75 H          -2.2368    3.6782   -6.4880 H       1  UNL1        0.0661
     76 H           3.7078    6.5083   -7.4137 H       1  UNL1        0.0837
     77 H           3.5979    2.7841   -5.8756 H       1  UNL1        0.0830
     78 H           1.4991    3.4312   -4.7333 H       1  UNL1        0.0639
     79 H          -2.0078    6.3439   -6.1392 H       1  UNL1        0.0816
     80 H          -0.6797    9.0325   -7.5116 H       1  UNL1        0.0457
     81 H          -1.0046    7.9215   -8.8819 H       1  UNL1        0.0457
     82 H          -2.1434    7.9975   -7.5045 H       1  UNL1        0.0457
     83 H           1.9111    5.2144   -4.1557 H       1  UNL1        0.0660
     84 H           0.8635    6.6535   -4.1960 H       1  UNL1        0.0660
     85 H           2.1368    6.1846   -2.9645 H       1  UNL1        0.0660
     86 H          -1.9238    4.5573   -1.8243 H       1  UNL1        0.0658
     87 H          -3.9781    1.4655   -1.3493 H       1  UNL1        0.0477
     88 H          -4.3465    1.0984   -2.8170 H       1  UNL1        0.0477
     89 H          -0.5082   -0.2641   -2.2455 H       1  UNL1        0.0439
     90 H          -1.4302   -1.0321   -3.8280 H       1  UNL1        0.0439
     91 H          -1.0253    2.2924   -4.6837 H       1  UNL1        0.0439
     92 H          -0.0681    0.9966   -5.4704 H       1  UNL1        0.0439
     93 H           2.5158    1.5271   -2.9706 H       1  UNL1        0.0426
     94 H           2.2946    2.4536   -1.6175 H       1  UNL1        0.0426
     95 H           2.3887   -0.1171   -0.7711 H       1  UNL1        0.0278
     96 H           0.9974    0.3397   -0.6076 H       1  UNL1        0.0278
     97 H           0.8248   -1.3977   -1.2368 H       1  UNL1        0.0267
     98 H           0.3349   -1.3330   -2.7808 H       1  UNL1        0.0267
     99 H           0.6270   -2.8687   -3.6176 H       1  UNL1        0.0298
    100 H           1.8481   -2.0452   -4.2352 H       1  UNL1        0.0298
    101 H           3.0234   -3.0825   -3.1998 H       1  UNL1        0.0696
    102 H           2.9659   -1.9299   -1.8116 H       1  UNL1        0.0696
    103 H           2.0236   -3.9427    0.9359 H       1  UNL1        0.0660
    104 H          -2.4021   -6.0441    2.1791 H       1  UNL1        0.0293
    105 H          -3.1255   -4.7190    3.1261 H       1  UNL1        0.0293
    106 H          -2.3493   -4.3998    1.5806 H       1  UNL1        0.0293
    107 H           0.7844   -5.6623    5.7750 H       1  UNL1        0.0907
    108 H          -1.5918   -1.9219    2.5129 H       1  UNL1        0.0624
    109 H          -2.2461   -1.5782    0.2929 H       1  UNL1        0.0622
    110 H          -0.9954   -1.1599   -1.1082 H       1  UNL1        0.0513
    111 H          -0.5630   -2.5686   -2.2669 H       1  UNL1        0.0513
    112 H          -2.0704   -3.0751   -3.1782 H       1  UNL1        0.1491
    113 H          -4.9142   -1.5368   -2.9206 H       1  UNL1        0.0597
    114 H          -6.2562   -2.0968   -3.7340 H       1  UNL1        0.0313
    115 H          -5.1933   -2.3040   -5.2627 H       1  UNL1        0.0313
    116 H          -6.7818   -0.4293   -5.8375 H       1  UNL1        0.0610
    117 H          -6.0774    0.8964   -3.4025 H       1  UNL1        0.2098
    118 H          -4.6888   -0.2079   -6.3680 H       1  UNL1        0.0490
    119 H          -5.3582    1.2373   -5.3332 H       1  UNL1        0.0490
    120 H          -2.4852    0.4825   -3.2816 H       1  UNL1        0.0600
    121 H          -4.5995    2.9153   -1.7112 H       1  UNL1        0.0236
    122 H          -3.6171    3.5837   -0.2237 H       1  UNL1        0.0236
    123 H          -3.7923    4.2072   -1.9391 H       1  UNL1        0.0236
    124 H          -1.8673    0.2295    0.4336 H       1  UNL1        0.0236
    125 H          -2.7652    1.3392    1.1662 H       1  UNL1        0.0236
    126 H          -3.3989    0.1230   -0.1656 H       1  UNL1        0.0236
    127 H           0.5870    2.3194   -0.3719 H       1  UNL1        0.0236
    128 H           0.7750    3.6311   -1.0784 H       1  UNL1        0.0236
    129 H          -0.6431    3.7648    0.3090 H       1  UNL1        0.0236
    130 H           0.9417    1.4208   -3.6973 H       1  UNL1        0.1496
    131 H           3.7608   -1.1567   -5.5723 H       1  UNL1        0.0302
    132 H           2.1102   -0.8323   -6.1546 H       1  UNL1        0.0302
    133 H           2.1250    1.5896   -5.2943 H       1  UNL1        0.0302
    134 H           3.7999    1.4345   -4.5852 H       1  UNL1        0.0302
    135 H          -1.0703    2.9172   -2.7249 H       1  UNL1        0.0439
    136 H          -0.3858    3.7223   -1.9803 H       1  UNL1        0.0439
    137 H          -1.2285    1.8552    0.1779 H       1  UNL1        0.0439
    138 H          -0.2626    0.8916    0.1007 H       1  UNL1        0.0439
@<TRIPOS>BOND
     1     1     2    1
     2     2     3    1
     3     3     4   ar
     4     4     5   ar
     5     5     6    1
     6     6     7   ar
     7     7     8   ar
     8     8     9   ar
     9     9    10   ar
    10    10    11   ar
    11    11    12   ar
    12     7    12   ar
    13     6    13   ar
    14    13    14   ar
    15    14    15    1
    16    14    16   ar
    17     8    16   ar
    18    16    17    2
    19     5    18   ar
    20    18    19    1
    21    19    20    1
    22    18    21   ar
    23     3    22   ar
    24    21    22   ar
    25    22    23    1
    26    23    24    1
    27    24    25    1
    28    25    26    1
    29    26    27    1
    30    27    28    1
    31    28    29    1
    32    29    30    1
    33    30    31    1
    34    31    32    1
    35    32    33    1
    36    33    34    1
    37    34    35   ar
    38    35    36   ar
    39    36    37    1
    40    37    38   ar
    41    38    39    1
    42    38    40   ar
    43    40    41   ar
    44    41    42   ar
    45    37    42   ar
    46    36    43   ar
    47    43    44   ar
    48    44    45   ar
    49    34    45   ar
    50    45    46    1
    51    46    47    1
    52    47    48   am
    53    49    50    1
    54    50    51    1
    55    51    52    1
    56    51    53    1
    57    53    54    1
    58    49    54    1
    59    54    55   am
    60    57    58    1
    61    57    59    1
    62    57    60    1
    63    56    61    1
    64    61    62   am
    65    62    63    1
    66    63    64    1
    67    63    65    1
    68    65    66    1
    69    63    66    1
    70    62    67    2
    71    55    68    2
    72    48    69    2
    73    27    70    1
    74    70    71    1
    75    24    71    1
    76     1    72    1
    77     1    73    1
    78     1    74    1
    79     4    75    1
    80     9    76    1
    81    11    77    1
    82    12    78    1
    83    13    79    1
    84    15    80    1
    85    15    81    1
    86    15    82    1
    87    20    83    1
    88    20    84    1
    89    20    85    1
    90    21    86    1
    91    23    87    1
    92    23    88    1
    93    25    89    1
    94    25    90    1
    95    26    91    1
    96    26    92    1
    97    28    93    1
    98    28    94    1
    99    29    95    1
   100    29    96    1
   101    30    97    1
   102    30    98    1
   103    31    99    1
   104    31   100    1
   105    32   101    1
   106    32   102    1
   107    35   103    1
   108    39   104    1
   109    39   105    1
   110    39   106    1
   111    41   107    1
   112    43   108    1
   113    44   109    1
   114    46   110    1
   115    46   111    1
   116    47   112    1
   117    50   114    1
   118    50   115    1
   119    51   116    1
   120    52   117    1
   121    53   118    1
   122    53   119    1
   123    56   120    1
   124    58   121    1
   125    58   122    1
   126    58   123    1
   127    59   124    1
   128    59   125    1
   129    59   126    1
   130    60   127    1
   131    60   128    1
   132    60   129    1
   133    61   130    1
   134    65   131    1
   135    65   132    1
   136    66   133    1
   137    66   134    1
   138    70   135    1
   139    70   136    1
   140    71   137    1
   141    71   138    1
   142    49   113    1
   143    49    48    1
   144    56    57    1
   145    56    55    1
