@<TRIPOS>MOLECULE
*****
 33 35 0 0 0
SMALL
GASTEIGER

@<TRIPOS>ATOM
      1 CL          0.8686   -0.0925   -0.0228 Cl      1  UNL1       -0.0814
      2 C           2.5619   -0.0184   -0.0213 C.ar    1  UNL1        0.0660
      3 C           3.2941    1.1337   -0.0165 C.ar    1  UNL1        0.0212
      4 N           4.5947    0.7609   -0.0038 N.ar    1  UNL1       -0.3578
      5 C           4.7744   -0.5976   -0.0148 C.ar    1  UNL1        0.0706
      6 C           5.9503   -1.3715   -0.0250 C.ar    1  UNL1        0.0719
      7 N           7.3033   -0.8824    0.1753 N.pl3   1  UNL1       -0.2142
      8 S           7.8485    0.7111   -0.0866 S.O2    1  UNL1        0.0724
      9 C           8.7003    1.1282    1.4207 C.ar    1  UNL1        0.1085
     10 C           8.6693    2.4651    1.8572 C.ar    1  UNL1       -0.0344
     11 C           9.4881    2.8719    2.9085 C.ar    1  UNL1       -0.0497
     12 C          10.2251    1.9112    3.5997 C.ar    1  UNL1        0.0143
     13 C          11.1824    2.3390    4.6382 C.2     1  UNL1        0.1502
     14 H          11.2884    3.4249    4.8015 H       1  UNL1        0.1081
     15 O          11.8573    1.5305    5.2630 O.2     1  UNL1       -0.2957
     16 C          10.1019    0.5525    3.2785 C.ar    1  UNL1       -0.0497
     17 C           9.3805    0.1596    2.1506 C.ar    1  UNL1       -0.0344
     18 O           8.8313    0.6856   -1.1391 O.2     1  UNL1       -0.1500
     19 O           6.7773    1.6854   -0.1218 O.2     1  UNL1       -0.1500
     20 C           5.7312   -2.7731   -0.0183 C.ar    1  UNL1       -0.0373
     21 C           4.4430   -3.3333   -0.0305 C.ar    1  UNL1       -0.0592
     22 C           3.3109   -2.5169   -0.0312 C.ar    1  UNL1       -0.0511
     23 C           3.4743   -1.1215   -0.0271 C.ar    1  UNL1        0.0198
     24 H           3.0370    2.1825   -0.0210 H       1  UNL1        0.0822
     25 H           5.3504    1.4273   -0.0239 H       1  UNL1        0.1654
     26 H           8.0153   -1.5425   -0.1527 H       1  UNL1        0.1738
     27 H           8.0335    3.2011    1.3663 H       1  UNL1        0.0637
     28 H           9.5509    3.9278    3.1611 H       1  UNL1        0.0625
     29 H          10.5986   -0.1977    3.8896 H       1  UNL1        0.0625
     30 H           9.3695   -0.8838    1.8547 H       1  UNL1        0.0637
     31 H           6.5685   -3.4712    0.0060 H       1  UNL1        0.0637
     32 H           4.3055   -4.4142   -0.0251 H       1  UNL1        0.0618
     33 H           2.3116   -2.9439   -0.0278 H       1  UNL1        0.0625
@<TRIPOS>BOND
     1     1     2    1
     2     2     3   ar
     3     3     4   ar
     4     4     5   ar
     5     5     6   ar
     6     6     7    1
     7     7     8    1
     8     8     9    1
     9     9    10   ar
    10    10    11   ar
    11    11    12   ar
    12    12    13    1
    13    13    14    1
    14    13    15    2
    15    12    16   ar
    16    16    17   ar
    17     9    17   ar
    18     8    18    2
    19     8    19    2
    20     6    20   ar
    21    20    21   ar
    22    21    22   ar
    23    22    23   ar
    24     5    23   ar
    25     2    23   ar
    26     3    24    1
    27     4    25    1
    28     7    26    1
    29    10    27    1
    30    11    28    1
    31    16    29    1
    32    17    30    1
    33    20    31    1
    34    21    32    1
    35    22    33    1
