@<TRIPOS>MOLECULE
*****
 84 87 0 0 0
SMALL
GASTEIGER

@<TRIPOS>ATOM
      1 O           5.2216    0.5891   -1.7774 O.2     1  UNL1       -0.2738
      2 C           4.4845   -0.1590   -1.1355 C.2     1  UNL1        0.2339
      3 N           4.9762   -0.8850   -0.0448 N.am    1  UNL1       -0.3095
      4 C           4.1762   -1.4699    1.1347 C.3     1  UNL1        0.0403
      5 C           4.8809   -2.3397    2.0178 C.ar    1  UNL1        0.0113
      6 C           5.3150   -2.1118    3.3614 C.ar    1  UNL1        0.1257
      7 O           5.1795   -1.0382    4.2283 O.3     1  UNL1       -0.4916
      8 C           4.2997    0.1363    4.1530 C.3     1  UNL1        0.0896
      9 C           4.8539    1.3425    3.3234 C.3     1  UNL1       -0.0183
     10 C           4.9015    1.0527    1.8745 C.3     1  UNL1       -0.0436
     11 C           3.4342    0.7788    1.5109 C.3     1  UNL1        0.0029
     12 C           2.2756    1.5322    1.4432 C.2     1  UNL1        0.1203
     13 H           1.8063    1.3676    0.4776 H       1  UNL1        0.1026
     14 O           1.7007    1.9043    2.4971 O.2     1  UNL1       -0.3010
     15 C           6.0798   -3.1620    3.7820 C.ar    1  UNL1       -0.0114
     16 C           6.1782   -4.3047    2.9337 C.ar    1  UNL1       -0.0061
     17 C           5.6387   -4.4444    1.6485 C.ar    1  UNL1       -0.0529
     18 C           4.9876   -3.4178    1.1728 C.ar    1  UNL1       -0.0530
     19 C           6.9192   -5.4419    3.3133 C.ar    1  UNL1        0.0418
     20 C           7.9188   -6.0317    2.5767 C.ar    1  UNL1        0.0531
     21 C           8.4751   -5.5245    1.2817 C.3     1  UNL1       -0.0212
     22 N           8.3837   -7.1905    3.1501 N.ar    1  UNL1       -0.2520
     23 C           7.7073   -7.4245    4.2578 C.ar    1  UNL1        0.0655
     24 S           6.4548   -6.3425    4.6650 S.2     1  UNL1       -0.0752
     25 C           2.9771   -0.3049   -1.4534 C.3     1  UNL1        0.1047
     26 N           2.4458    0.5730   -2.4847 N.am    1  UNL1       -0.2858
     27 C           2.1811    1.9561   -2.4854 C.2     1  UNL1        0.2371
     28 C           2.4647    2.9336   -1.2246 C.3     1  UNL1        0.1045
     29 N           3.3850    4.0672   -1.5414 N.am    1  UNL1       -0.3009
     30 C           3.2195    5.4292   -1.2921 C.2     1  UNL1        0.2508
     31 C           4.3993    6.2546   -1.5556 C.3     1  UNL1        0.1868
     32 F           5.6062    5.7011   -1.1451 F       1  UNL1       -0.2320
     33 C           4.3682    7.1263   -2.7772 C.3     1  UNL1       -0.0068
     34 C           4.3439    7.7617   -1.4175 C.3     1  UNL1       -0.0068
     35 O           2.2461    6.0477   -0.8805 O.2     1  UNL1       -0.2723
     36 C           1.1325    3.4623   -0.5093 C.3     1  UNL1       -0.0108
     37 C           0.0165    2.4175   -0.1683 C.3     1  UNL1       -0.0579
     38 C           1.4661    4.2493    0.8218 C.3     1  UNL1       -0.0579
     39 C           0.3803    4.3303   -1.5522 C.3     1  UNL1       -0.0579
     40 O           1.7028    2.4553   -3.5119 O.2     1  UNL1       -0.2735
     41 C           1.9891   -0.2855   -3.5750 C.3     1  UNL1        0.0416
     42 C           1.7617   -1.6717   -2.9349 C.3     1  UNL1        0.0731
     43 O           1.9189   -2.7729   -3.8043 O.3     1  UNL1       -0.3902
     44 C           2.8243   -1.7529   -1.8756 C.3     1  UNL1        0.0018
     45 H           5.9288   -0.5627    0.1438 H       1  UNL1        0.1491
     46 H           4.1334   -0.9016    2.0175 H       1  UNL1        0.0513
     47 H           3.1465   -1.7818    0.9318 H       1  UNL1        0.0513
     48 H           3.2737   -0.1735    3.9165 H       1  UNL1        0.0696
     49 H           4.1727    0.5666    5.1583 H       1  UNL1        0.0696
     50 H           4.2068    2.2204    3.3669 H       1  UNL1        0.0298
     51 H           5.8604    1.5989    3.6457 H       1  UNL1        0.0298
     52 H           5.3850    1.7459    1.1833 H       1  UNL1        0.0270
     53 H           5.6424    0.2256    1.8625 H       1  UNL1        0.0270
     54 H           3.3707    0.3381    0.5597 H       1  UNL1        0.0339
     55 H           2.8702    0.0428    2.1183 H       1  UNL1        0.0339
     56 H           6.6410   -3.1168    4.7136 H       1  UNL1        0.0660
     57 H           5.7699   -5.2518    0.9421 H       1  UNL1        0.0624
     58 H           4.5849   -3.3824    0.1624 H       1  UNL1        0.0622
     59 H           9.5254   -5.2690    1.4067 H       1  UNL1        0.0293
     60 H           8.3440   -6.2685    0.4914 H       1  UNL1        0.0293
     61 H           7.9953   -4.6052    0.9174 H       1  UNL1        0.0293
     62 H           7.9111   -8.2597    4.9017 H       1  UNL1        0.0907
     63 H           2.2481   -0.2141   -0.6590 H       1  UNL1        0.0597
     64 H           3.1153    2.3682   -0.5611 H       1  UNL1        0.0600
     65 H           4.3189    3.7849   -1.8219 H       1  UNL1        0.1496
     66 H           5.2621    7.1582   -3.3754 H       1  UNL1        0.0302
     67 H           3.4420    7.1761   -3.3477 H       1  UNL1        0.0302
     68 H           3.4241    8.2561   -1.1141 H       1  UNL1        0.0302
     69 H           5.2342    8.2269   -1.0213 H       1  UNL1        0.0302
     70 H           0.1534    1.7443    0.6737 H       1  UNL1        0.0236
     71 H          -0.8864    2.9350    0.1636 H       1  UNL1        0.0236
     72 H          -0.1997    1.7816   -1.0291 H       1  UNL1        0.0236
     73 H           2.3036    4.9413    0.8134 H       1  UNL1        0.0236
     74 H           0.5902    4.7476    1.2346 H       1  UNL1        0.0236
     75 H           1.8637    3.6619    1.6242 H       1  UNL1        0.0236
     76 H           0.9803    5.0350   -2.1193 H       1  UNL1        0.0236
     77 H          -0.0287    3.7011   -2.3452 H       1  UNL1        0.0236
     78 H          -0.4315    4.8823   -1.0776 H       1  UNL1        0.0236
     79 H           2.7954   -0.3270   -4.3125 H       1  UNL1        0.0490
     80 H           1.0790    0.0911   -4.0470 H       1  UNL1        0.0490
     81 H           0.7744   -1.7196   -2.4575 H       1  UNL1        0.0610
     82 H           2.8527   -2.8170   -4.0779 H       1  UNL1        0.2098
     83 H           2.4990   -2.3667   -1.0253 H       1  UNL1        0.0313
     84 H           3.7670   -2.1981   -2.2183 H       1  UNL1        0.0313
@<TRIPOS>BOND
     1     1     2    2
     2     2     3   am
     3     3     4    1
     4     4     5    1
     5     5     6   ar
     6     6     7    1
     7     7     8    1
     8     8     9    1
     9     9    10    1
    10    10    11    1
    11    11    12    1
    12    12    13    1
    13    12    14    2
    14     6    15   ar
    15    15    16   ar
    16    16    17   ar
    17    17    18   ar
    18     5    18   ar
    19    16    19    1
    20    19    20   ar
    21    20    21    1
    22    20    22   ar
    23    22    23   ar
    24    23    24   ar
    25    19    24   ar
    26    25    26    1
    27    26    27   am
    28    27    28    1
    29    28    29    1
    30    29    30   am
    31    30    31    1
    32    31    32    1
    33    31    33    1
    34    33    34    1
    35    31    34    1
    36    30    35    2
    37    28    36    1
    38    36    37    1
    39    36    38    1
    40    36    39    1
    41    27    40    2
    42    26    41    1
    43    41    42    1
    44    42    43    1
    45    42    44    1
    46    25    44    1
    47     3    45    1
    48     4    46    1
    49     4    47    1
    50     8    48    1
    51     8    49    1
    52     9    50    1
    53     9    51    1
    54    10    52    1
    55    10    53    1
    56    11    54    1
    57    11    55    1
    58    15    56    1
    59    17    57    1
    60    18    58    1
    61    21    59    1
    62    21    60    1
    63    21    61    1
    64    23    62    1
    65    28    64    1
    66    29    65    1
    67    33    66    1
    68    33    67    1
    69    34    68    1
    70    34    69    1
    71    37    70    1
    72    37    71    1
    73    37    72    1
    74    38    73    1
    75    38    74    1
    76    38    75    1
    77    39    76    1
    78    39    77    1
    79    39    78    1
    80    41    79    1
    81    41    80    1
    82    42    81    1
    83    43    82    1
    84    44    83    1
    85    44    84    1
    86    25    63    1
    87    25     2    1
