@<TRIPOS>MOLECULE
*****
 105 108 0 0 0
SMALL
GASTEIGER

@<TRIPOS>ATOM
      1 O          -1.1302    4.7696    0.3235 O.2     1  UNL1       -0.2738
      2 C          -0.0687    5.3686    0.4181 C.2     1  UNL1        0.2339
      3 C           0.3078    6.0757    1.8209 C.3     1  UNL1        0.1047
      4 C           0.2963    7.6664    2.2331 C.3     1  UNL1        0.0018
      5 C           1.5858    7.8526    2.9687 C.3     1  UNL1        0.0731
      6 O           1.3539    7.4195    4.3017 O.3     1  UNL1       -0.3902
      7 C           2.5130    6.9033    2.2098 C.3     1  UNL1        0.0416
      8 N           1.6949    5.7338    1.7954 N.am    1  UNL1       -0.2858
      9 C           2.2518    4.5100    1.4033 C.2     1  UNL1        0.2371
     10 C           1.4656    3.1913    0.6663 C.3     1  UNL1        0.1045
     11 C           1.8833    2.9537   -0.8540 C.3     1  UNL1       -0.0108
     12 C           1.0959    3.6503   -1.8677 C.3     1  UNL1       -0.0579
     13 C           3.2992    3.4673   -1.1653 C.3     1  UNL1       -0.0579
     14 C           1.4836    1.6201   -1.4256 C.3     1  UNL1       -0.0579
     15 N           0.0219    2.8898    0.8394 N.am    1  UNL1       -0.3009
     16 C          -0.6336    1.9722    1.5184 C.2     1  UNL1        0.2508
     17 C          -2.1219    2.1080    1.6758 C.3     1  UNL1        0.1868
     18 F          -2.5249    2.2244    3.0064 F       1  UNL1       -0.2320
     19 C          -3.0347    2.8606    0.7084 C.3     1  UNL1       -0.0068
     20 C          -3.1008    1.3799    0.7641 C.3     1  UNL1       -0.0068
     21 O           0.0075    1.0172    2.1301 O.2     1  UNL1       -0.2723
     22 O           3.4913    4.4786    1.4282 O.2     1  UNL1       -0.2735
     23 N           0.6946    5.6836   -0.7418 N.am    1  UNL1       -0.3095
     24 C           0.1801    5.7404   -2.4500 C.3     1  UNL1        0.0403
     25 C           0.0265    6.9162   -3.4624 C.ar    1  UNL1        0.0113
     26 C          -0.8409    6.4889   -4.5489 C.ar    1  UNL1       -0.0530
     27 C          -1.5000    7.4219   -5.3386 C.ar    1  UNL1       -0.0529
     28 C          -1.4589    8.7652   -4.9719 C.ar    1  UNL1       -0.0061
     29 C          -2.1243    9.7827   -5.7426 C.ar    1  UNL1        0.0418
     30 C          -1.4680   10.8298   -6.3546 C.ar    1  UNL1        0.0531
     31 C           0.0020   11.0609   -6.3139 C.3     1  UNL1       -0.0212
     32 N          -2.2829   11.6960   -7.0459 N.ar    1  UNL1       -0.2520
     33 C          -3.5320   11.2970   -6.9357 C.ar    1  UNL1        0.0655
     34 S          -3.8020    9.8715   -6.0126 S.2     1  UNL1       -0.0752
     35 C          -0.6305    9.2131   -3.9290 C.ar    1  UNL1       -0.0113
     36 C           0.1832    8.3307   -3.2186 C.ar    1  UNL1        0.1259
     37 O           0.4624    8.9702   -2.0121 O.3     1  UNL1       -0.4893
     38 C           0.6836    8.0152   -1.0413 C.3     1  UNL1        0.1128
     39 C          -0.6368    7.3943   -0.6541 C.3     1  UNL1        0.0818
     40 O          -1.5778    6.5436   -1.2865 O.3     1  UNL1       -0.3742
     41 C          -2.2897    7.3182   -2.1531 C.3     1  UNL1        0.0711
     42 C          -2.8604    8.6179   -1.5986 C.3     1  UNL1        0.0711
     43 O          -2.5043    9.1047   -0.2779 O.3     1  UNL1       -0.3752
     44 C          -2.5520    8.1323    0.8838 C.3     1  UNL1        0.0711
     45 C          -2.8855    6.5130    0.5173 C.3     1  UNL1        0.0711
     46 O          -3.8223    5.6727   -0.2807 O.3     1  UNL1       -0.3752
     47 C          -4.7214    6.4153   -1.1055 C.3     1  UNL1        0.0711
     48 C          -5.5270    7.6518   -0.5221 C.3     1  UNL1        0.0714
     49 O          -5.1122    8.3761    0.6881 O.3     1  UNL1       -0.3735
     50 C          -4.9395    7.6455    1.9205 C.3     1  UNL1        0.0657
     51 C          -5.9374    6.5943    2.1112 C.2     1  UNL1       -0.0658
     52 C          -5.7220    5.3041    1.7891 C.2     1  UNL1       -0.1005
     53 H          -0.3200    5.6066    2.5891 H       1  UNL1        0.0597
     54 H          -0.5275    7.9426    2.9118 H       1  UNL1        0.0313
     55 H           0.2414    8.4493    1.4703 H       1  UNL1        0.0313
     56 H           1.9114    8.9038    2.9983 H       1  UNL1        0.0610
     57 H           1.0604    6.4920    4.2581 H       1  UNL1        0.2098
     58 H           2.8974    7.4081    1.3096 H       1  UNL1        0.0490
     59 H           3.3227    6.5548    2.8391 H       1  UNL1        0.0490
     60 H           1.9358    2.3742    1.2053 H       1  UNL1        0.0600
     61 H           1.6974    4.5472   -1.8634 H       1  UNL1        0.0236
     62 H           1.1618    3.4476   -2.9438 H       1  UNL1        0.0236
     63 H           0.0289    3.6397   -1.6058 H       1  UNL1        0.0236
     64 H           4.0176    2.8539   -0.6512 H       1  UNL1        0.0236
     65 H           3.4809    3.4898   -2.2499 H       1  UNL1        0.0236
     66 H           3.4312    4.5315   -0.8810 H       1  UNL1        0.0236
     67 H           2.0504    0.8542   -0.9435 H       1  UNL1        0.0236
     68 H           0.3913    1.4760   -1.3225 H       1  UNL1        0.0236
     69 H           1.6693    1.6118   -2.5156 H       1  UNL1        0.0236
     70 H          -0.6628    3.4350    0.3001 H       1  UNL1        0.1496
     71 H          -3.9134    3.3569    1.0806 H       1  UNL1        0.0302
     72 H          -2.6958    3.3370   -0.2008 H       1  UNL1        0.0302
     73 H          -2.7733    0.8615   -0.1237 H       1  UNL1        0.0302
     74 H          -4.0103    0.9759    1.1942 H       1  UNL1        0.0302
     75 H           1.5753    6.1010   -0.4646 H       1  UNL1        0.1491
     76 H           0.9602    5.3479   -3.0843 H       1  UNL1        0.0513
     77 H          -0.7221    5.0783   -2.5034 H       1  UNL1        0.0513
     78 H          -1.2688    5.4669   -4.5719 H       1  UNL1        0.0622
     79 H          -2.0824    7.0939   -6.1937 H       1  UNL1        0.0624
     80 H           0.4138   11.0499   -7.3215 H       1  UNL1        0.0293
     81 H           0.2117   12.0111   -5.8202 H       1  UNL1        0.0293
     82 H           0.5421   10.2862   -5.7591 H       1  UNL1        0.0293
     83 H          -4.3410   11.8406   -7.4036 H       1  UNL1        0.0907
     84 H          -0.7674   10.2218   -3.5156 H       1  UNL1        0.0660
     85 H           1.5304    7.4751   -1.4292 H       1  UNL1        0.0720
     86 H           1.0805    8.4017   -0.1103 H       1  UNL1        0.0720
     87 H          -0.6782    7.0795    0.3337 H       1  UNL1        0.0594
     88 H          -1.0516    8.2800   -0.4843 H       1  UNL1        0.0594
     89 H          -1.5061    7.7685   -2.5641 H       1  UNL1        0.0583
     90 H          -2.7244    6.7105   -2.9693 H       1  UNL1        0.0583
     91 H          -2.9622    9.2951   -2.4523 H       1  UNL1        0.0583
     92 H          -3.8528    8.5157   -1.3821 H       1  UNL1        0.0583
     93 H          -1.7772    7.5710    1.4284 H       1  UNL1        0.0583
     94 H          -1.9236    8.7666    1.5395 H       1  UNL1        0.0583
     95 H          -2.7622    5.9209    1.4461 H       1  UNL1        0.0583
     96 H          -3.6609    7.1583    0.3946 H       1  UNL1        0.0583
     97 H          -3.9558    6.8569   -1.6037 H       1  UNL1        0.0583
     98 H          -4.9882    6.0227   -2.1005 H       1  UNL1        0.0583
     99 H          -5.5848    8.4277   -1.3194 H       1  UNL1        0.0583
    100 H          -6.5161    7.3035   -0.3483 H       1  UNL1        0.0583
    101 H          -4.1667    6.9122    1.9523 H       1  UNL1        0.0604
    102 H          -4.3461    8.2144    2.6595 H       1  UNL1        0.0604
    103 H          -6.8434    6.9755    2.5089 H       1  UNL1        0.0589
    104 H          -6.4299    4.5071    1.8917 H       1  UNL1        0.0532
    105 H          -4.7845    4.9604    1.3708 H       1  UNL1        0.0532
@<TRIPOS>BOND
     1     1     2    2
     2     3     4    1
     3     4     5    1
     4     5     6    1
     5     5     7    1
     6     7     8    1
     7     3     8    1
     8     8     9   am
     9    11    12    1
    10    11    13    1
    11    11    14    1
    12    10    15    1
    13    15    16   am
    14    16    17    1
    15    17    18    1
    16    17    19    1
    17    19    20    1
    18    17    20    1
    19    16    21    2
    20     9    22    2
    21     2    23   am
    22    23    24    1
    23    24    25    1
    24    25    26   ar
    25    26    27   ar
    26    27    28   ar
    27    28    29    1
    28    29    30   ar
    29    30    31    1
    30    30    32   ar
    31    32    33   ar
    32    33    34   ar
    33    29    34   ar
    34    28    35   ar
    35    35    36   ar
    36    25    36   ar
    37    36    37    1
    38    37    38    1
    39    38    39    1
    40    39    40    1
    41    40    41    1
    42    41    42    1
    43    42    43    1
    44    43    44    1
    45    44    45    1
    46    45    46    1
    47    46    47    1
    48    47    48    1
    49    48    49    1
    50    49    50    1
    51    50    51    1
    52    51    52    2
    53     4    54    1
    54     4    55    1
    55     5    56    1
    56     6    57    1
    57     7    58    1
    58     7    59    1
    59    10    60    1
    60    12    61    1
    61    12    62    1
    62    12    63    1
    63    13    64    1
    64    13    65    1
    65    13    66    1
    66    14    67    1
    67    14    68    1
    68    14    69    1
    69    15    70    1
    70    19    71    1
    71    19    72    1
    72    20    73    1
    73    20    74    1
    74    23    75    1
    75    24    76    1
    76    24    77    1
    77    26    78    1
    78    27    79    1
    79    31    80    1
    80    31    81    1
    81    31    82    1
    82    33    83    1
    83    35    84    1
    84    38    85    1
    85    38    86    1
    86    39    87    1
    87    39    88    1
    88    41    89    1
    89    41    90    1
    90    42    91    1
    91    42    92    1
    92    44    93    1
    93    44    94    1
    94    45    95    1
    95    45    96    1
    96    47    97    1
    97    47    98    1
    98    48    99    1
    99    48   100    1
   100    50   101    1
   101    50   102    1
   102    51   103    1
   103    52   104    1
   104    52   105    1
   105    10    11    1
   106    10     9    1
   107     3    53    1
   108     3     2    1
