@<TRIPOS>MOLECULE
*****
 20 21 0 0 0
SMALL
GASTEIGER

@<TRIPOS>ATOM
      1 O           0.9054   -0.0257    0.0870 O.2     1  UNL1       -0.2670
      2 C           2.1375   -0.0705    0.0933 C.ar    1  UNL1        0.2603
      3 N           2.8735   -1.2497    0.0030 N.ar    1  UNL1       -0.3167
      4 C           2.1355   -2.4939   -0.1003 C.3     1  UNL1        0.0147
      5 C           4.2568   -1.2697    0.0068 C.ar    1  UNL1        0.0213
      6 C           5.0119   -0.1627    0.1014 C.ar    1  UNL1        0.0375
      7 I           7.0863   -0.3721    0.0429 I       1  UNL1       -0.0417
      8 C           4.3190    1.1405    0.1552 C.ar    1  UNL1        0.0047
      9 C           4.9971    2.3578    0.1138 C.ar    1  UNL1       -0.0347
     10 C           4.2664    3.5090   -0.1202 C.ar    1  UNL1        0.0282
     11 N           2.9210    3.5692   -0.0637 N.ar    1  UNL1       -0.2625
     12 C           2.2719    2.4006    0.1361 C.ar    1  UNL1        0.0405
     13 C           2.9191    1.1759    0.1571 C.ar    1  UNL1        0.0657
     14 H           1.4942   -2.5920    0.7807 H       1  UNL1        0.0457
     15 H           1.5046   -2.4624   -0.9945 H       1  UNL1        0.0457
     16 H           2.8073   -3.3543   -0.1594 H       1  UNL1        0.0457
     17 H           4.7168   -2.2504   -0.0816 H       1  UNL1        0.0820
     18 H           6.0748    2.4300    0.1911 H       1  UNL1        0.0639
     19 H           4.7689    4.4276   -0.4088 H       1  UNL1        0.0830
     20 H           1.1933    2.4789    0.2485 H       1  UNL1        0.0837
@<TRIPOS>BOND
     1     1     2    2
     2     2     3   ar
     3     3     4    1
     4     3     5   ar
     5     5     6   ar
     6     6     7    1
     7     6     8   ar
     8     8     9   ar
     9     9    10   ar
    10    10    11   ar
    11    11    12   ar
    12    12    13   ar
    13     8    13   ar
    14     2    13   ar
    15     4    14    1
    16     4    15    1
    17     4    16    1
    18     5    17    1
    19     9    18    1
    20    10    19    1
    21    12    20    1
