@<TRIPOS>MOLECULE
*****
 139 146 0 0 0
SMALL
GASTEIGER

@<TRIPOS>ATOM
      1 C          -5.6911   -8.4351   -2.4658 C.3     1  UNL1       -0.0212
      2 C          -5.1459   -9.0691   -3.6645 C.ar    1  UNL1        0.0531
      3 C          -3.7996   -9.0636   -4.0257 C.ar    1  UNL1        0.0418
      4 S          -3.7512   -9.5535   -5.7159 S.2     1  UNL1       -0.0752
      5 C          -5.3971  -10.0720   -5.6004 C.ar    1  UNL1        0.0655
      6 N          -6.0389   -9.6680   -4.5312 N.ar    1  UNL1       -0.2520
      7 C          -2.6092   -8.8059   -3.0941 C.ar    1  UNL1       -0.0061
      8 C          -1.4198   -7.9750   -3.4167 C.ar    1  UNL1       -0.0529
      9 C          -0.2187   -7.8707   -2.3909 C.ar    1  UNL1       -0.0530
     10 C          -0.2649   -8.5864   -0.9664 C.ar    1  UNL1        0.0113
     11 C           0.8750   -8.2365    0.0231 C.3     1  UNL1        0.0403
     12 N           2.2043   -8.5519   -0.4834 N.am    1  UNL1       -0.3095
     13 C           3.3398   -8.0027   -0.9758 C.2     1  UNL1        0.2339
     14 C           4.4106   -9.0900   -1.5154 C.3     1  UNL1        0.1047
     15 C           5.7937   -8.5427   -1.8825 C.3     1  UNL1        0.0018
     16 C           6.2620   -9.5049   -2.9743 C.3     1  UNL1        0.0731
     17 O           6.8051  -10.7095   -2.4152 O.3     1  UNL1       -0.3902
     18 C           4.9837   -9.8083   -3.7482 C.3     1  UNL1        0.0416
     19 N           3.9383   -9.8152   -2.7381 N.am    1  UNL1       -0.2858
     20 C           2.7749  -10.5278   -3.0295 C.2     1  UNL1        0.2371
     21 C           1.7450  -10.7818   -1.9181 C.3     1  UNL1        0.1045
     22 C           2.2538  -11.4276   -0.4822 C.3     1  UNL1       -0.0108
     23 C           3.2637  -12.4138   -1.0015 C.3     1  UNL1       -0.0579
     24 C           2.9328  -10.6693    0.7787 C.3     1  UNL1       -0.0579
     25 C           1.0773  -12.0960    0.2275 C.3     1  UNL1       -0.0579
     26 N           0.6147  -11.5899   -2.3315 N.am    1  UNL1       -0.3009
     27 C          -0.5682  -11.0516   -2.6041 C.2     1  UNL1        0.2508
     28 C          -1.8060  -11.8048   -2.6057 C.3     1  UNL1        0.1868
     29 F          -2.5019  -11.8902   -1.4176 F       1  UNL1       -0.2320
     30 C          -2.3704  -11.6340   -3.9945 C.3     1  UNL1       -0.0068
     31 C          -2.3379  -12.9212   -3.3203 C.3     1  UNL1       -0.0068
     32 O          -0.5401   -9.9893   -2.9450 O.2     1  UNL1       -0.2723
     33 O           2.5090  -10.9082   -4.1741 O.2     1  UNL1       -0.2735
     34 O           3.4882   -6.7941   -0.9858 O.2     1  UNL1       -0.2738
     35 C          -1.3784   -9.5732   -0.6817 C.ar    1  UNL1        0.1259
     36 O          -1.5221  -10.2553    0.5968 O.3     1  UNL1       -0.4893
     37 C          -2.7463  -11.0197    0.9584 C.3     1  UNL1        0.1128
     38 C          -4.1852  -10.3961    0.7878 C.3     1  UNL1        0.0818
     39 O          -4.4606   -9.1505    0.0452 O.3     1  UNL1       -0.3742
     40 C          -3.4913   -8.1532   -0.2192 C.3     1  UNL1        0.0712
     41 C          -2.7138   -7.1455    0.4945 C.3     1  UNL1        0.0716
     42 O          -2.2589   -7.7543    1.6727 O.3     1  UNL1       -0.3683
     43 C          -3.2967   -8.4019    2.3873 C.3     1  UNL1        0.1237
     44 C          -4.7661   -7.7517    2.2567 C.2     1  UNL1        0.2391
     45 N          -5.8434   -8.3230    1.4548 N.am    1  UNL1       -0.3081
     46 C          -7.0290   -7.5817    1.0927 C.3     1  UNL1        0.0486
     47 C          -6.7353   -6.3783    0.2225 C.3     1  UNL1        0.0189
     48 N          -8.2483   -6.2999   -0.1031 N.3     1  UNL1       -0.2943
     49 C          -9.2300   -5.6004    0.8132 C.3     1  UNL1        0.0311
     50 C          -9.3075   -6.0487    2.2227 C.ar    1  UNL1        0.0498
     51 C         -10.3395   -6.8595    2.7310 C.ar    1  UNL1        0.1285
     52 O         -11.4896   -7.2579    2.0809 O.3     1  UNL1       -0.4947
     53 C         -11.7277   -6.8115    0.7455 C.3     1  UNL1        0.0788
     54 C         -10.1809   -7.3802    4.0215 C.ar    1  UNL1       -0.0116
     55 C          -8.9412   -7.3099    4.6784 C.ar    1  UNL1       -0.0090
     56 C          -8.7008   -8.1471    5.8778 C.ar    1  UNL1        0.0065
     57 C          -8.7416   -9.6201    5.9302 C.ar    1  UNL1       -0.0007
     58 C          -8.3594  -10.2948    7.0882 C.ar    1  UNL1        0.0653
     59 C          -8.3307  -11.6726    7.0759 C.ar    1  UNL1        0.0405
     60 N          -8.4067  -12.3858    5.9301 N.ar    1  UNL1       -0.2625
     61 C          -8.6851  -11.6934    4.8069 C.ar    1  UNL1        0.0282
     62 C          -9.0576  -10.3684    4.8040 C.ar    1  UNL1       -0.0351
     63 C          -8.3155   -7.5147    6.9967 C.ar    1  UNL1        0.0159
     64 N          -7.9503   -8.1661    8.1580 N.ar    1  UNL1       -0.3171
     65 C          -7.5226   -7.3916    9.2997 C.3     1  UNL1        0.0147
     66 C          -7.9414   -9.5523    8.2840 C.ar    1  UNL1        0.2603
     67 O          -7.5913  -10.1558    9.2938 O.2     1  UNL1       -0.2670
     68 C          -7.9247   -6.4896    4.1496 C.ar    1  UNL1       -0.0116
     69 C          -8.1596   -5.7275    2.9844 C.ar    1  UNL1        0.1285
     70 O          -7.1268   -4.9250    2.5041 O.3     1  UNL1       -0.4947
     71 C          -7.1683   -4.0505    1.3246 C.3     1  UNL1        0.0788
     72 C          -8.1945   -7.7948    0.1067 C.3     1  UNL1        0.0189
     73 O          -4.8957   -6.6528    2.7954 O.2     1  UNL1       -0.2733
     74 C          -2.5783   -9.6136   -1.7788 C.ar    1  UNL1       -0.0113
     75 H          -6.0875   -7.4567   -2.7095 H       1  UNL1        0.0293
     76 H          -6.3393   -9.0721   -1.8705 H       1  UNL1        0.0293
     77 H          -4.9207   -8.1445   -1.8098 H       1  UNL1        0.0293
     78 H          -5.8970  -10.6301   -6.3846 H       1  UNL1        0.0907
     79 H          -1.2761   -7.7685   -4.5057 H       1  UNL1        0.0624
     80 H           0.8413   -7.8462   -2.8734 H       1  UNL1        0.0622
     81 H           0.8910   -7.1739    0.1764 H       1  UNL1        0.0513
     82 H           0.7202   -8.8153    0.9580 H       1  UNL1        0.0513
     83 H           2.2388   -9.5094   -0.5634 H       1  UNL1        0.1491
     84 H           4.7556   -9.8157   -0.7776 H       1  UNL1        0.0597
     85 H           6.4793   -8.5642   -1.0207 H       1  UNL1        0.0313
     86 H           5.7012   -7.5170   -2.2325 H       1  UNL1        0.0313
     87 H           7.0461   -9.0626   -3.5899 H       1  UNL1        0.0610
     88 H           6.0994  -11.2131   -1.9755 H       1  UNL1        0.2098
     89 H           4.7424   -9.0101   -4.4532 H       1  UNL1        0.0490
     90 H           5.0179  -10.7750   -4.2603 H       1  UNL1        0.0490
     91 H           1.3773   -9.7669   -1.9539 H       1  UNL1        0.0600
     92 H           4.0833  -11.8766   -1.4795 H       1  UNL1        0.0236
     93 H           3.6906  -12.9885   -0.1948 H       1  UNL1        0.0236
     94 H           2.7946  -13.0429   -1.7636 H       1  UNL1        0.0236
     95 H           2.2621   -9.9994    1.3334 H       1  UNL1        0.0236
     96 H           3.4030  -11.2792    1.5452 H       1  UNL1        0.0236
     97 H           3.7358  -10.0253    0.5000 H       1  UNL1        0.0236
     98 H           0.4200  -11.3238    0.6207 H       1  UNL1        0.0236
     99 H           0.5006  -12.7560   -0.4175 H       1  UNL1        0.0236
    100 H           1.4279  -12.6654    1.0866 H       1  UNL1        0.0236
    101 H           0.5698  -12.5346   -2.5562 H       1  UNL1        0.1496
    102 H          -3.3852  -11.3266   -4.1054 H       1  UNL1        0.0302
    103 H          -1.6525  -11.1853   -4.6937 H       1  UNL1        0.0302
    104 H          -1.5600  -13.6148   -3.1286 H       1  UNL1        0.0302
    105 H          -3.3267  -13.0861   -2.8629 H       1  UNL1        0.0302
    106 H          -2.7403  -11.9915    0.4696 H       1  UNL1        0.0720
    107 H          -2.6259  -11.3390    2.0233 H       1  UNL1        0.0720
    108 H          -4.7906  -10.5701    1.7114 H       1  UNL1        0.0594
    109 H          -4.8833  -10.9876    0.2059 H       1  UNL1        0.0594
    110 H          -2.8259   -8.8397    0.1150 H       1  UNL1        0.0583
    111 H          -3.3813   -7.7885   -1.2393 H       1  UNL1        0.0583
    112 H          -1.8232   -6.8878   -0.1103 H       1  UNL1        0.0583
    113 H          -3.4404   -6.3602    0.5291 H       1  UNL1        0.0583
    114 H          -2.6049   -8.2406    3.2047 H       1  UNL1        0.0656
    115 H          -3.4206   -9.3044    3.0226 H       1  UNL1        0.0656
    116 H          -5.6784   -8.9811    0.6955 H       1  UNL1        0.1491
    117 H          -7.4288   -7.5264    2.0758 H       1  UNL1        0.0523
    118 H          -6.0506   -5.7896    0.8403 H       1  UNL1        0.0445
    119 H          -6.1347   -6.2965   -0.6968 H       1  UNL1        0.0445
    120 H          -9.2560   -4.5073    0.9265 H       1  UNL1        0.0478
    121 H         -10.1415   -5.5069    0.2583 H       1  UNL1        0.0478
    122 H         -11.8660   -5.7214    0.7397 H       1  UNL1        0.0660
    123 H         -10.9503   -7.1738    0.0561 H       1  UNL1        0.0660
    124 H         -12.6516   -7.2000    0.3238 H       1  UNL1        0.0660
    125 H         -11.0073   -7.8887    4.5156 H       1  UNL1        0.0660
    126 H          -8.2002  -12.2389    7.9927 H       1  UNL1        0.0837
    127 H          -8.5312  -12.2160    3.8682 H       1  UNL1        0.0830
    128 H          -9.5031   -9.9283    3.9216 H       1  UNL1        0.0639
    129 H          -8.2562   -6.4306    7.0155 H       1  UNL1        0.0816
    130 H          -8.1814   -7.6278   10.1395 H       1  UNL1        0.0457
    131 H          -6.4963   -7.6710    9.5571 H       1  UNL1        0.0457
    132 H          -7.5691   -6.3219    9.0830 H       1  UNL1        0.0457
    133 H          -6.9280   -6.5199    4.5993 H       1  UNL1        0.0660
    134 H          -7.4624   -4.4348    0.3409 H       1  UNL1        0.0660
    135 H          -7.8966   -3.2648    1.4276 H       1  UNL1        0.0660
    136 H          -6.1620   -3.7851    0.9856 H       1  UNL1        0.0660
    137 H          -7.9912   -8.2771   -0.8469 H       1  UNL1        0.0445
    138 H          -9.1056   -8.2308    0.5183 H       1  UNL1        0.0445
    139 H          -3.5259  -10.2239   -1.5725 H       1  UNL1        0.0660
@<TRIPOS>BOND
     1     1     2    1
     2     2     3   ar
     3     3     4   ar
     4     4     5   ar
     5     5     6   ar
     6     2     6   ar
     7     3     7    1
     8     7     8   ar
     9     8     9   ar
    10     9    10   ar
    11    10    11    1
    12    11    12    1
    13    12    13   am
    14    14    15    1
    15    15    16    1
    16    16    17    1
    17    16    18    1
    18    18    19    1
    19    14    19    1
    20    19    20   am
    21    22    23    1
    22    22    24    1
    23    22    25    1
    24    21    26    1
    25    26    27   am
    26    27    28    1
    27    28    29    1
    28    28    30    1
    29    30    31    1
    30    28    31    1
    31    27    32    2
    32    20    33    2
    33    13    34    2
    34    10    35   ar
    35    35    36    1
    36    36    37    1
    37    37    38    1
    38    38    39    1
    39    39    40    1
    40    40    41    1
    41    41    42    1
    42    42    43    1
    43    43    44    1
    44    44    45   am
    45    45    46    1
    46    46    47    1
    47    47    48    1
    48    48    49    1
    49    49    50    1
    50    50    51   ar
    51    51    52    1
    52    52    53    1
    53    51    54   ar
    54    54    55   ar
    55    55    56    1
    56    56    57   ar
    57    57    58   ar
    58    58    59   ar
    59    59    60   ar
    60    60    61   ar
    61    61    62   ar
    62    57    62   ar
    63    56    63   ar
    64    63    64   ar
    65    64    65    1
    66    64    66   ar
    67    58    66   ar
    68    66    67    2
    69    55    68   ar
    70    68    69   ar
    71    50    69   ar
    72    69    70    1
    73    70    71    1
    74    48    72    1
    75    46    72    1
    76    44    73    2
    77    35    74   ar
    78     7    74   ar
    79     1    75    1
    80     1    76    1
    81     1    77    1
    82     5    78    1
    83     8    79    1
    84     9    80    1
    85    11    81    1
    86    11    82    1
    87    12    83    1
    88    15    85    1
    89    15    86    1
    90    16    87    1
    91    17    88    1
    92    18    89    1
    93    18    90    1
    94    21    91    1
    95    23    92    1
    96    23    93    1
    97    23    94    1
    98    24    95    1
    99    24    96    1
   100    24    97    1
   101    25    98    1
   102    25    99    1
   103    25   100    1
   104    26   101    1
   105    30   102    1
   106    30   103    1
   107    31   104    1
   108    31   105    1
   109    37   106    1
   110    37   107    1
   111    38   108    1
   112    38   109    1
   113    40   110    1
   114    40   111    1
   115    41   112    1
   116    41   113    1
   117    43   114    1
   118    43   115    1
   119    45   116    1
   120    46   117    1
   121    47   118    1
   122    47   119    1
   123    49   120    1
   124    49   121    1
   125    53   122    1
   126    53   123    1
   127    53   124    1
   128    54   125    1
   129    59   126    1
   130    61   127    1
   131    62   128    1
   132    63   129    1
   133    65   130    1
   134    65   131    1
   135    65   132    1
   136    68   133    1
   137    71   134    1
   138    71   135    1
   139    71   136    1
   140    72   137    1
   141    72   138    1
   142    74   139    1
   143    14    84    1
   144    14    13    1
   145    21    22    1
   146    21    20    1
