@<TRIPOS>MOLECULE
*****
 138 145 0 0 0
SMALL
GASTEIGER

@<TRIPOS>ATOM
      1 O           4.2955   -1.0074    3.2980 O.2     1  UNL1       -0.2738
      2 C           3.2780   -1.2246    2.6285 C.2     1  UNL1        0.2339
      3 N           2.0142   -1.1924    3.3815 N.am    1  UNL1       -0.3095
      4 C           0.6670   -1.2209    2.8624 C.3     1  UNL1        0.0403
      5 C          -0.7012   -1.6152    3.2149 C.ar    1  UNL1        0.0113
      6 C          -1.1638   -2.6445    2.4190 C.ar    1  UNL1        0.1257
      7 O          -0.5912   -3.2816    1.3933 O.3     1  UNL1       -0.4916
      8 C           0.6207   -2.7677    1.0142 C.3     1  UNL1        0.0896
      9 C           0.5450   -1.2489    0.0520 C.3     1  UNL1       -0.0186
     10 C           0.0170    0.3014    0.6868 C.3     1  UNL1       -0.0488
     11 C           0.5520    1.0726    2.2697 C.3     1  UNL1       -0.0401
     12 C           2.0094    1.2009    2.3031 C.3     1  UNL1       -0.0010
     13 N           1.6855    2.2638    1.5294 N.3     1  UNL1       -0.2999
     14 C           1.3167    3.3206    2.3899 C.3     1  UNL1        0.0117
     15 C           2.3900    3.7216    3.3703 C.3     1  UNL1        0.0120
     16 N           3.3858    4.3976    2.5298 N.3     1  UNL1       -0.2955
     17 C           3.0873    5.6368    1.6372 C.3     1  UNL1        0.0311
     18 C           2.1268    5.7067    0.4152 C.ar    1  UNL1        0.0498
     19 C           2.5627    5.7993   -0.9303 C.ar    1  UNL1        0.1285
     20 O           3.8214    6.1608   -1.3896 O.3     1  UNL1       -0.4947
     21 C           5.0154    6.3085   -0.5971 C.3     1  UNL1        0.0788
     22 C           1.7030    5.2804   -1.9794 C.ar    1  UNL1       -0.0116
     23 C           0.4726    4.6454   -1.7112 C.ar    1  UNL1       -0.0090
     24 C          -0.3617    3.9678   -2.7687 C.ar    1  UNL1        0.0065
     25 C           0.0061    2.8880   -3.7152 C.ar    1  UNL1       -0.0007
     26 C          -0.8457    2.4136   -4.7037 C.ar    1  UNL1        0.0653
     27 C          -0.4382    1.3666   -5.5216 C.ar    1  UNL1        0.0405
     28 N           0.6654    0.6272   -5.2741 N.ar    1  UNL1       -0.2625
     29 C           1.4386    1.0557   -4.2656 C.ar    1  UNL1        0.0282
     30 C           1.2098    2.2448   -3.5900 C.ar    1  UNL1       -0.0351
     31 C          -1.6298    4.3953   -2.8911 C.ar    1  UNL1        0.0159
     32 N          -2.5110    3.9461   -3.8590 N.ar    1  UNL1       -0.3171
     33 C          -3.8293    4.5306   -3.9373 C.3     1  UNL1        0.0147
     34 C          -2.1843    2.9889   -4.8210 C.ar    1  UNL1        0.2603
     35 O          -2.9416    2.5960   -5.7028 O.2     1  UNL1       -0.2670
     36 C           0.0128    4.7470   -0.3960 C.ar    1  UNL1       -0.0116
     37 C           0.7312    5.4838    0.5985 C.ar    1  UNL1        0.1285
     38 O           0.0309    5.5779    1.7991 O.3     1  UNL1       -0.4947
     39 C           0.6338    5.8333    3.0686 C.3     1  UNL1        0.0788
     40 C           3.8375    3.2676    1.7349 C.3     1  UNL1        0.0120
     41 C           2.7850    2.5847    0.7711 C.3     1  UNL1        0.0117
     42 C          -2.4121   -3.0826    2.5483 C.ar    1  UNL1       -0.0114
     43 C          -3.2084   -2.4083    3.4298 C.ar    1  UNL1       -0.0061
     44 C          -2.9593   -1.1224    3.8852 C.ar    1  UNL1       -0.0529
     45 C          -1.6849   -0.6818    3.7254 C.ar    1  UNL1       -0.0530
     46 C          -4.3193   -3.1328    3.8776 C.ar    1  UNL1        0.0418
     47 C          -5.6253   -2.8311    3.6603 C.ar    1  UNL1        0.0531
     48 C          -6.0924   -1.6379    2.9085 C.3     1  UNL1       -0.0212
     49 N          -6.4780   -3.7561    4.2153 N.ar    1  UNL1       -0.2520
     50 C          -5.7722   -4.7048    4.8028 C.ar    1  UNL1        0.0655
     51 S          -4.0775   -4.5708    4.7509 S.2     1  UNL1       -0.0752
     52 C           3.5039   -1.3124    0.9049 C.3     1  UNL1        0.1047
     53 N           4.8204   -1.2606    0.2231 N.am    1  UNL1       -0.2858
     54 C           5.6217   -0.1954   -0.1648 C.2     1  UNL1        0.2371
     55 C           5.2410    1.2324    0.2093 C.3     1  UNL1        0.1045
     56 N           6.1930    1.8661    1.1524 N.am    1  UNL1       -0.3009
     57 C           6.7241    3.1018    1.0155 C.2     1  UNL1        0.2508
     58 C           7.3091    3.8388    2.1231 C.3     1  UNL1        0.1868
     59 F           6.8258    3.6018    3.4055 F       1  UNL1       -0.2320
     60 C           8.7526    4.0797    1.8290 C.3     1  UNL1       -0.0068
     61 C           7.8249    5.2575    1.9279 C.3     1  UNL1       -0.0068
     62 O           6.7858    3.7950   -0.0593 O.2     1  UNL1       -0.2723
     63 C           4.8096    2.0678   -1.1167 C.3     1  UNL1       -0.0108
     64 C           3.7314    1.4340   -1.9873 C.3     1  UNL1       -0.0579
     65 C           4.3291    3.4992   -1.0497 C.3     1  UNL1       -0.0579
     66 C           6.0326    2.2483   -2.0034 C.3     1  UNL1       -0.0579
     67 O           6.6552   -0.3941   -0.8051 O.2     1  UNL1       -0.2735
     68 C           5.1406   -2.5574   -0.3756 C.3     1  UNL1        0.0416
     69 C           3.8487   -3.2410   -0.6750 C.3     1  UNL1        0.0731
     70 O           3.7603   -4.6492   -0.5151 O.3     1  UNL1       -0.3902
     71 C           3.0805   -2.6690    0.4440 C.3     1  UNL1        0.0018
     72 H           2.1102   -0.6143    4.2095 H       1  UNL1        0.1491
     73 H          -0.0186   -0.5082    2.4942 H       1  UNL1        0.0513
     74 H           1.0660   -1.0237    1.9008 H       1  UNL1        0.0513
     75 H           1.3052   -2.7761    1.8875 H       1  UNL1        0.0696
     76 H           1.0838   -3.6669    0.5984 H       1  UNL1        0.0696
     77 H           1.4897   -0.9608   -0.4282 H       1  UNL1        0.0298
     78 H          -0.0098   -1.5344   -0.8449 H       1  UNL1        0.0298
     79 H           0.1938    1.0602   -0.1055 H       1  UNL1        0.0267
     80 H          -1.0633    0.1807    0.7445 H       1  UNL1        0.0267
     81 H          -0.2493    1.7493    2.5856 H       1  UNL1        0.0278
     82 H           0.5517    0.7391    3.3417 H       1  UNL1        0.0278
     83 H           2.6046    1.2781    3.2194 H       1  UNL1        0.0426
     84 H           2.5626    0.5272    1.7156 H       1  UNL1        0.0426
     85 H           1.3041    3.9336    1.5623 H       1  UNL1        0.0439
     86 H           0.2721    3.3721    2.6781 H       1  UNL1        0.0439
     87 H           2.8248    2.8726    3.9139 H       1  UNL1        0.0439
     88 H           2.0669    4.2403    4.2649 H       1  UNL1        0.0439
     89 H           2.8502    6.5239    2.2195 H       1  UNL1        0.0478
     90 H           4.0727    5.9527    1.3878 H       1  UNL1        0.0478
     91 H           5.0282    7.2683   -0.0950 H       1  UNL1        0.0660
     92 H           5.2061    5.5893    0.1953 H       1  UNL1        0.0660
     93 H           5.9049    6.1416   -1.2199 H       1  UNL1        0.0660
     94 H           2.0621    5.2558   -3.0114 H       1  UNL1        0.0660
     95 H          -1.0041    1.0716   -6.3997 H       1  UNL1        0.0837
     96 H           2.2491    0.3904   -3.9830 H       1  UNL1        0.0830
     97 H           1.9110    2.6862   -2.9130 H       1  UNL1        0.0639
     98 H          -2.0122    5.1606   -2.2217 H       1  UNL1        0.0816
     99 H          -3.9406    4.9984   -4.9195 H       1  UNL1        0.0457
    100 H          -4.5704    3.7340   -3.8298 H       1  UNL1        0.0457
    101 H          -3.9777    5.2796   -3.1554 H       1  UNL1        0.0457
    102 H          -0.8484    4.1360   -0.0916 H       1  UNL1        0.0660
    103 H           1.6670    5.6241    3.1594 H       1  UNL1        0.0660
    104 H           0.7159    6.8739    3.3144 H       1  UNL1        0.0660
    105 H           0.2324    5.1523    3.8386 H       1  UNL1        0.0660
    106 H           4.2074    2.4993    2.4424 H       1  UNL1        0.0439
    107 H           4.7240    3.6732    1.3422 H       1  UNL1        0.0439
    108 H           3.0400    1.6661    0.2733 H       1  UNL1        0.0439
    109 H           2.2148    3.0457   -0.0317 H       1  UNL1        0.0439
    110 H          -2.6693   -3.9968    2.0259 H       1  UNL1        0.0660
    111 H          -3.7100   -0.5169    4.3851 H       1  UNL1        0.0624
    112 H          -1.5205    0.3937    3.8893 H       1  UNL1        0.0622
    113 H          -6.6964   -1.9435    2.0561 H       1  UNL1        0.0293
    114 H          -6.6495   -0.9862    3.5813 H       1  UNL1        0.0293
    115 H          -5.2697   -1.0329    2.4965 H       1  UNL1        0.0293
    116 H          -6.2146   -5.5428    5.3090 H       1  UNL1        0.0907
    117 H           2.9812   -0.5044    0.4004 H       1  UNL1        0.0597
    118 H           4.4572    1.0170    0.9210 H       1  UNL1        0.0600
    119 H           6.1057    1.5431    2.1223 H       1  UNL1        0.1496
    120 H           9.4476    3.7885    2.5860 H       1  UNL1        0.0302
    121 H           9.0389    3.7548    0.8205 H       1  UNL1        0.0302
    122 H           7.5540    5.7872    1.0140 H       1  UNL1        0.0302
    123 H           7.9175    5.9142    2.7766 H       1  UNL1        0.0302
    124 H           2.7171    1.4141   -1.5645 H       1  UNL1        0.0236
    125 H           3.6839    2.0667   -2.8833 H       1  UNL1        0.0236
    126 H           3.9697    0.4346   -2.3173 H       1  UNL1        0.0236
    127 H           4.9307    4.0343   -0.3906 H       1  UNL1        0.0236
    128 H           4.1985    3.9739   -2.0141 H       1  UNL1        0.0236
    129 H           3.4335    3.8247   -0.6129 H       1  UNL1        0.0236
    130 H           6.9388    2.4783   -1.4640 H       1  UNL1        0.0236
    131 H           6.2485    1.3299   -2.5160 H       1  UNL1        0.0236
    132 H           5.8781    3.0765   -2.7064 H       1  UNL1        0.0236
    133 H           5.6658   -3.1036    0.4021 H       1  UNL1        0.0490
    134 H           5.7000   -2.4646   -1.3017 H       1  UNL1        0.0490
    135 H           3.3807   -2.9636   -1.6387 H       1  UNL1        0.0610
    136 H           3.8019   -4.8733    0.4340 H       1  UNL1        0.2098
    137 H           2.2003   -2.6339   -0.1589 H       1  UNL1        0.0313
    138 H           3.0795   -3.3256    1.3124 H       1  UNL1        0.0313
@<TRIPOS>BOND
     1     1     2    2
     2     2     3   am
     3     3     4    1
     4     4     5    1
     5     5     6   ar
     6     6     7    1
     7     7     8    1
     8     8     9    1
     9     9    10    1
    10    10    11    1
    11    11    12    1
    12    12    13    1
    13    13    14    1
    14    14    15    1
    15    15    16    1
    16    16    17    1
    17    17    18    1
    18    18    19   ar
    19    19    20    1
    20    20    21    1
    21    19    22   ar
    22    22    23   ar
    23    23    24    1
    24    24    25   ar
    25    25    26   ar
    26    26    27   ar
    27    27    28   ar
    28    28    29   ar
    29    29    30   ar
    30    25    30   ar
    31    24    31   ar
    32    31    32   ar
    33    32    33    1
    34    32    34   ar
    35    26    34   ar
    36    34    35    2
    37    23    36   ar
    38    36    37   ar
    39    18    37   ar
    40    37    38    1
    41    38    39    1
    42    16    40    1
    43    40    41    1
    44    13    41    1
    45     6    42   ar
    46    42    43   ar
    47    43    44   ar
    48    44    45   ar
    49     5    45   ar
    50    43    46    1
    51    46    47   ar
    52    47    48    1
    53    47    49   ar
    54    49    50   ar
    55    50    51   ar
    56    46    51   ar
    57    52    53    1
    58    53    54   am
    59    54    55    1
    60    55    56    1
    61    56    57   am
    62    57    58    1
    63    58    59    1
    64    58    60    1
    65    60    61    1
    66    58    61    1
    67    57    62    2
    68    55    63    1
    69    63    64    1
    70    63    65    1
    71    63    66    1
    72    54    67    2
    73    53    68    1
    74    68    69    1
    75    69    70    1
    76    69    71    1
    77    52    71    1
    78     3    72    1
    79     4    73    1
    80     4    74    1
    81     8    75    1
    82     8    76    1
    83     9    77    1
    84     9    78    1
    85    10    79    1
    86    10    80    1
    87    11    81    1
    88    11    82    1
    89    12    83    1
    90    12    84    1
    91    14    85    1
    92    14    86    1
    93    15    87    1
    94    15    88    1
    95    17    89    1
    96    17    90    1
    97    21    91    1
    98    21    92    1
    99    21    93    1
   100    22    94    1
   101    27    95    1
   102    29    96    1
   103    30    97    1
   104    31    98    1
   105    33    99    1
   106    33   100    1
   107    33   101    1
   108    36   102    1
   109    39   103    1
   110    39   104    1
   111    39   105    1
   112    40   106    1
   113    40   107    1
   114    41   108    1
   115    41   109    1
   116    42   110    1
   117    44   111    1
   118    45   112    1
   119    48   113    1
   120    48   114    1
   121    48   115    1
   122    50   116    1
   123    55   118    1
   124    56   119    1
   125    60   120    1
   126    60   121    1
   127    61   122    1
   128    61   123    1
   129    64   124    1
   130    64   125    1
   131    64   126    1
   132    65   127    1
   133    65   128    1
   134    65   129    1
   135    66   130    1
   136    66   131    1
   137    66   132    1
   138    68   133    1
   139    68   134    1
   140    69   135    1
   141    70   136    1
   142    71   137    1
   143    71   138    1
   144    52   117    1
   145    52     2    1
