@<TRIPOS>MOLECULE
*****
 138 145 0 0 0
SMALL
GASTEIGER

@<TRIPOS>ATOM
      1 C           3.6032   -6.3662    0.9921 C.3     1  UNL1        0.0788
      2 O           3.9670   -5.2698    1.8265 O.3     1  UNL1       -0.4947
      3 C           5.0703   -4.6500    1.4704 C.ar    1  UNL1        0.1285
      4 C           6.1757   -4.2914    2.2226 C.ar    1  UNL1       -0.0116
      5 C           7.1960   -3.4835    1.7985 C.ar    1  UNL1       -0.0090
      6 C           8.2597   -2.8271    2.5164 C.ar    1  UNL1        0.0065
      7 C           8.4502   -1.5046    2.3448 C.ar    1  UNL1        0.0159
      8 N           9.4440   -0.8508    3.0170 N.ar    1  UNL1       -0.3171
      9 C           9.4656    0.5885    3.0154 C.3     1  UNL1        0.0147
     10 C          10.3248   -1.5246    3.8528 C.ar    1  UNL1        0.2603
     11 O          11.1560   -0.9759    4.5637 O.2     1  UNL1       -0.2670
     12 C          10.2548   -2.9882    3.8254 C.ar    1  UNL1        0.0653
     13 C          11.0926   -3.7866    4.5312 C.ar    1  UNL1        0.0405
     14 N          11.2285   -5.1122    4.2789 N.ar    1  UNL1       -0.2625
     15 C          10.3874   -5.6716    3.3905 C.ar    1  UNL1        0.0282
     16 C           9.2755   -5.0261    2.9659 C.ar    1  UNL1       -0.0351
     17 C           9.2901   -3.6364    3.1144 C.ar    1  UNL1       -0.0007
     18 C           7.6375   -3.8600    0.6076 C.ar    1  UNL1       -0.0116
     19 C           6.5895   -3.6945   -0.3361 C.ar    1  UNL1        0.1285
     20 O           6.4553   -3.1497   -2.2144 O.3     1  UNL1       -0.4947
     21 C           5.5246   -3.7020   -3.8263 C.3     1  UNL1        0.0788
     22 C           5.1176   -4.2568    0.2327 C.ar    1  UNL1        0.0498
     23 C           3.7735   -4.6304   -1.1209 C.3     1  UNL1        0.0311
     24 N           3.1310   -3.5441   -1.9423 N.3     1  UNL1       -0.2955
     25 C           2.6197   -2.3063   -1.2654 C.3     1  UNL1        0.0120
     26 C           3.6815   -1.0613    0.2688 C.3     1  UNL1        0.0117
     27 N           4.4357    0.0886   -0.3813 N.3     1  UNL1       -0.2999
     28 C           3.7664    1.1616   -1.9755 C.3     1  UNL1       -0.0010
     29 C           2.9242    0.1736   -3.5086 C.3     1  UNL1       -0.0401
     30 C           1.6792   -0.4316   -3.0295 C.3     1  UNL1       -0.0488
     31 C           0.7818    0.4359   -2.2913 C.3     1  UNL1       -0.0186
     32 C           0.4228    0.8674   -3.6093 C.3     1  UNL1        0.0896
     33 O          -0.1672   -0.2785   -4.4499 O.3     1  UNL1       -0.4916
     34 C           0.4195   -1.4716   -5.0080 C.ar    1  UNL1        0.1257
     35 C           0.5271   -1.6116   -6.3294 C.ar    1  UNL1       -0.0114
     36 C           1.0996   -2.8287   -6.8176 C.ar    1  UNL1       -0.0061
     37 C           0.5441   -3.4245   -7.9696 C.ar    1  UNL1        0.0418
     38 C          -0.1458   -4.6191   -8.0547 C.ar    1  UNL1        0.0531
     39 C          -0.5061   -5.5601   -6.9501 C.3     1  UNL1       -0.0212
     40 N          -0.5102   -4.9249   -9.3442 N.ar    1  UNL1       -0.2520
     41 C          -0.0848   -3.9734  -10.1481 C.ar    1  UNL1        0.0655
     42 S           0.7733   -2.6765   -9.4557 S.2     1  UNL1       -0.0752
     43 C           1.9577   -3.6895   -6.1399 C.ar    1  UNL1       -0.0529
     44 C           1.8492   -3.6097   -4.8453 C.ar    1  UNL1       -0.0530
     45 C           0.8569   -2.7250   -4.3673 C.ar    1  UNL1        0.0113
     46 C           0.8715   -2.8373   -2.9350 C.3     1  UNL1        0.0403
     47 N           0.7772   -3.6806   -1.6941 N.am    1  UNL1       -0.3095
     48 C           1.7046   -3.8128   -0.2785 C.2     1  UNL1        0.2339
     49 O           1.3599   -4.7165    0.4848 O.2     1  UNL1       -0.2738
     50 C           3.4519   -2.7045   -0.0451 C.3     1  UNL1        0.1047
     51 C           3.0925   -0.8202   -1.1941 C.3     1  UNL1        0.0018
     52 C           4.6314   -0.3117   -2.4141 C.3     1  UNL1        0.0731
     53 O           5.6667    1.0212   -1.4070 O.3     1  UNL1       -0.3902
     54 C           5.4006   -1.5640   -2.7473 C.3     1  UNL1        0.0416
     55 N           5.0776   -2.9643   -1.1958 N.am    1  UNL1       -0.2858
     56 C           5.7438   -4.7530   -1.6826 C.2     1  UNL1        0.2371
     57 O           5.5533   -5.8783   -1.1079 O.2     1  UNL1       -0.2735
     58 C           7.3683   -4.7017   -2.3726 C.3     1  UNL1        0.1045
     59 N           7.2148   -4.9469   -3.9637 N.am    1  UNL1       -0.3009
     60 C           7.3278   -3.7800   -5.1408 C.2     1  UNL1        0.2508
     61 O           6.5904   -3.8069   -6.1138 O.2     1  UNL1       -0.2723
     62 C           7.9694   -2.4647   -4.8838 C.3     1  UNL1        0.1868
     63 F           8.0661   -2.7793   -3.6860 F       1  UNL1       -0.2320
     64 C           9.2076   -2.0287   -5.4493 C.3     1  UNL1       -0.0068
     65 C           8.2277   -0.9609   -4.9919 C.3     1  UNL1       -0.0068
     66 C           8.3671   -3.0857   -1.9604 C.3     1  UNL1       -0.0108
     67 C           8.5888   -2.4537   -0.6802 C.3     1  UNL1       -0.0579
     68 C           9.5779   -3.6041   -2.6154 C.3     1  UNL1       -0.0579
     69 C           7.9370   -1.4938   -2.3136 C.3     1  UNL1       -0.0579
     70 C           5.1906   -1.2404   -0.9794 C.3     1  UNL1        0.0117
     71 C           4.0142   -2.5262   -2.3798 C.3     1  UNL1        0.0120
     72 H           2.6875   -6.6810    1.4407 H       1  UNL1        0.0660
     73 H           4.4061   -7.0600    0.7823 H       1  UNL1        0.0660
     74 H           3.1795   -6.3688   -0.0032 H       1  UNL1        0.0660
     75 H           6.3532   -4.7802    3.1476 H       1  UNL1        0.0660
     76 H           7.8134   -0.8870    1.7080 H       1  UNL1        0.0816
     77 H           9.2718    0.9331    4.0350 H       1  UNL1        0.0457
     78 H          10.4578    0.9089    2.6971 H       1  UNL1        0.0457
     79 H           8.7058    0.9901    2.3400 H       1  UNL1        0.0457
     80 H          11.7033   -3.3492    5.3046 H       1  UNL1        0.0837
     81 H          10.6440   -6.6408    2.9845 H       1  UNL1        0.0830
     82 H           8.4601   -5.5741    2.4990 H       1  UNL1        0.0639
     83 H           8.8185   -3.5938    0.7345 H       1  UNL1        0.0660
     84 H           5.0101   -4.6885   -3.6594 H       1  UNL1        0.0660
     85 H           4.3833   -3.7399   -4.1243 H       1  UNL1        0.0660
     86 H           5.5485   -2.8387   -4.5066 H       1  UNL1        0.0660
     87 H           3.9723   -5.3666   -1.9717 H       1  UNL1        0.0478
     88 H           2.9918   -5.0931   -0.7030 H       1  UNL1        0.0478
     89 H           2.5529   -1.8889   -2.2418 H       1  UNL1        0.0439
     90 H           1.6816   -2.1181   -0.7331 H       1  UNL1        0.0439
     91 H           4.4220   -1.4110    1.0825 H       1  UNL1        0.0439
     92 H           3.0737   -0.2970    0.7825 H       1  UNL1        0.0439
     93 H           3.0103    1.8002   -1.7108 H       1  UNL1        0.0426
     94 H           4.9360    1.5165   -2.7630 H       1  UNL1        0.0426
     95 H           2.8709    0.5243   -4.5782 H       1  UNL1        0.0278
     96 H           3.5338   -0.7425   -4.1555 H       1  UNL1        0.0278
     97 H           1.8843   -1.0673   -3.8444 H       1  UNL1        0.0267
     98 H           1.2976   -1.1226   -2.2353 H       1  UNL1        0.0267
     99 H           0.1019   -0.1326   -1.6050 H       1  UNL1        0.0298
    100 H           1.3542    1.0805   -1.5822 H       1  UNL1        0.0298
    101 H          -0.2333    1.6031   -3.1987 H       1  UNL1        0.0696
    102 H           1.3243    1.3569   -4.0290 H       1  UNL1        0.0696
    103 H           0.0240   -0.8900   -6.9397 H       1  UNL1        0.0660
    104 H          -1.5906   -5.6797   -6.8936 H       1  UNL1        0.0293
    105 H          -0.0446   -6.5370   -7.1239 H       1  UNL1        0.0293
    106 H          -0.1750   -5.2161   -5.9656 H       1  UNL1        0.0293
    107 H          -0.2608   -3.9961  -11.2072 H       1  UNL1        0.0907
    108 H           2.4519   -4.5885   -6.4643 H       1  UNL1        0.0624
    109 H           2.4544   -4.2043   -4.1498 H       1  UNL1        0.0622
    110 H           1.9094   -2.6978   -3.2011 H       1  UNL1        0.0513
    111 H           0.1642   -2.0320   -2.8187 H       1  UNL1        0.0513
    112 H          -0.0674   -3.2636   -1.3809 H       1  UNL1        0.1491
    113 H           3.1186   -2.5351    1.1029 H       1  UNL1        0.0597
    114 H           2.1970   -0.3696   -0.4813 H       1  UNL1        0.0313
    115 H           2.2748   -0.2585   -1.4541 H       1  UNL1        0.0313
    116 H           4.6473    0.2135   -3.4529 H       1  UNL1        0.0610
    117 H           5.4465    0.7889   -0.3792 H       1  UNL1        0.2098
    118 H           5.1413   -1.5068   -3.8435 H       1  UNL1        0.0490
    119 H           6.0788   -0.8459   -3.0330 H       1  UNL1        0.0490
    120 H           7.5697   -5.6063   -1.7630 H       1  UNL1        0.0600
    121 H           6.3377   -5.4988   -4.0724 H       1  UNL1        0.1496
    122 H          10.0891   -2.2900   -4.8553 H       1  UNL1        0.0302
    123 H           9.1181   -2.6513   -6.3066 H       1  UNL1        0.0302
    124 H           7.4630   -0.3632   -5.4427 H       1  UNL1        0.0302
    125 H           8.6015   -0.2986   -4.1522 H       1  UNL1        0.0302
    126 H           8.9844   -3.5007   -0.6795 H       1  UNL1        0.0236
    127 H           9.0948   -1.5842   -0.3303 H       1  UNL1        0.0236
    128 H           7.6535   -2.0151   -0.0583 H       1  UNL1        0.0236
    129 H           9.3408   -3.9554   -3.6177 H       1  UNL1        0.0236
    130 H          10.0611   -2.6468   -2.5428 H       1  UNL1        0.0236
    131 H           9.7522   -4.5527   -2.1303 H       1  UNL1        0.0236
    132 H           7.3349   -1.4170   -3.1779 H       1  UNL1        0.0236
    133 H           7.2585   -1.4111   -1.5440 H       1  UNL1        0.0236
    134 H           8.3513   -0.5146   -2.1246 H       1  UNL1        0.0236
    135 H           5.9447   -1.6085   -0.2332 H       1  UNL1        0.0439
    136 H           6.1909   -0.4874   -1.5148 H       1  UNL1        0.0439
    137 H           4.5300   -3.4641   -2.5818 H       1  UNL1        0.0439
    138 H           3.8193   -2.3458   -3.5042 H       1  UNL1        0.0439
@<TRIPOS>BOND
     1     1     2    1
     2     2     3    1
     3     3     4   ar
     4     4     5   ar
     5     5     6    1
     6     6     7   ar
     7     7     8   ar
     8     8     9    1
     9     8    10   ar
    10    10    11    2
    11    10    12   ar
    12    12    13   ar
    13    13    14   ar
    14    14    15   ar
    15    15    16   ar
    16    16    17   ar
    17     6    17   ar
    18    12    17   ar
    19     5    18   ar
    20    18    19   ar
    21    19    20    1
    22    20    21    1
    23    19    22   ar
    24     3    22   ar
    25    22    23    1
    26    23    24    1
    27    24    25    1
    28    25    26    1
    29    26    27    1
    30    27    28    1
    31    28    29    1
    32    29    30    1
    33    30    31    1
    34    31    32    1
    35    32    33    1
    36    33    34    1
    37    34    35   ar
    38    35    36   ar
    39    36    37    1
    40    37    38   ar
    41    38    39    1
    42    38    40   ar
    43    40    41   ar
    44    41    42   ar
    45    37    42   ar
    46    36    43   ar
    47    43    44   ar
    48    44    45   ar
    49    34    45   ar
    50    45    46    1
    51    46    47    1
    52    47    48   am
    53    48    49    2
    54    50    51    1
    55    51    52    1
    56    52    53    1
    57    52    54    1
    58    54    55    1
    59    50    55    1
    60    55    56   am
    61    56    57    2
    62    56    58    1
    63    58    59    1
    64    59    60   am
    65    60    61    2
    66    60    62    1
    67    62    63    1
    68    62    64    1
    69    64    65    1
    70    62    65    1
    71    58    66    1
    72    66    67    1
    73    66    68    1
    74    66    69    1
    75    27    70    1
    76    70    71    1
    77    24    71    1
    78     1    72    1
    79     1    73    1
    80     1    74    1
    81     4    75    1
    82     7    76    1
    83     9    77    1
    84     9    78    1
    85     9    79    1
    86    13    80    1
    87    15    81    1
    88    16    82    1
    89    18    83    1
    90    21    84    1
    91    21    85    1
    92    21    86    1
    93    23    87    1
    94    23    88    1
    95    25    89    1
    96    25    90    1
    97    26    91    1
    98    26    92    1
    99    28    93    1
   100    28    94    1
   101    29    95    1
   102    29    96    1
   103    30    97    1
   104    30    98    1
   105    31    99    1
   106    31   100    1
   107    32   101    1
   108    32   102    1
   109    35   103    1
   110    39   104    1
   111    39   105    1
   112    39   106    1
   113    41   107    1
   114    43   108    1
   115    44   109    1
   116    46   110    1
   117    46   111    1
   118    47   112    1
   119    51   114    1
   120    51   115    1
   121    52   116    1
   122    53   117    1
   123    54   118    1
   124    54   119    1
   125    58   120    1
   126    59   121    1
   127    64   122    1
   128    64   123    1
   129    65   124    1
   130    65   125    1
   131    67   126    1
   132    67   127    1
   133    67   128    1
   134    68   129    1
   135    68   130    1
   136    68   131    1
   137    69   132    1
   138    69   133    1
   139    69   134    1
   140    70   135    1
   141    70   136    1
   142    71   137    1
   143    71   138    1
   144    50   113    1
   145    50    48    1
