@<TRIPOS>MOLECULE
*****
 104 107 0 0 0
SMALL
GASTEIGER

@<TRIPOS>ATOM
      1 C          -2.5408   -7.6139    5.7075 C.3     1  UNL1       -0.0212
      2 C          -1.4047   -8.3905    6.2344 C.ar    1  UNL1        0.0531
      3 C          -0.1265   -8.6633    5.7309 C.ar    1  UNL1        0.0418
      4 S           0.7042   -9.6788    6.8417 S.2     1  UNL1       -0.0752
      5 C          -0.6081   -9.5617    7.9134 C.ar    1  UNL1        0.0655
      6 N          -1.6412   -8.8736    7.5097 N.ar    1  UNL1       -0.2520
      7 C           0.6248   -8.3310    4.5151 C.ar    1  UNL1       -0.0061
      8 C           0.6043   -9.2085    3.4619 C.ar    1  UNL1       -0.0529
      9 C           1.0691   -8.7678    2.2284 C.ar    1  UNL1       -0.0530
     10 C           1.6027   -7.4809    1.9269 C.ar    1  UNL1        0.0113
     11 C           1.8037   -7.0493    0.4623 C.3     1  UNL1        0.0403
     12 N           3.1406   -7.4661    0.0249 N.am    1  UNL1       -0.3095
     13 C           3.3085   -8.0253   -1.2189 C.2     1  UNL1        0.2339
     14 C           4.4591   -9.0492   -1.5285 C.3     1  UNL1        0.1047
     15 C           5.8245   -8.5079   -1.9063 C.3     1  UNL1        0.0018
     16 C           6.2715   -9.4968   -2.9874 C.3     1  UNL1        0.0731
     17 O           6.8197  -10.6840   -2.3933 O.3     1  UNL1       -0.3902
     18 C           4.9759   -9.8227   -3.7383 C.3     1  UNL1        0.0416
     19 N           3.9651   -9.8283   -2.6917 N.am    1  UNL1       -0.2858
     20 C           2.6849  -10.3809   -2.8986 C.2     1  UNL1        0.2371
     21 C           1.6403  -10.5070   -1.6993 C.3     1  UNL1        0.1045
     22 C           2.1975  -11.3654   -0.5189 C.3     1  UNL1       -0.0108
     23 C           3.2065  -12.3778   -1.0234 C.3     1  UNL1       -0.0579
     24 C           2.8845  -10.5295    0.5445 C.3     1  UNL1       -0.0579
     25 C           1.0449  -12.0482    0.2256 C.3     1  UNL1       -0.0579
     26 N           0.3294  -11.0059   -2.1860 N.am    1  UNL1       -0.3009
     27 C          -0.8033  -10.1721   -2.1088 C.2     1  UNL1        0.2508
     28 C          -2.1392  -10.7728   -2.4724 C.3     1  UNL1        0.1868
     29 F          -3.1721  -10.2592   -1.6760 F       1  UNL1       -0.2320
     30 C          -2.4775  -11.0281   -3.9240 C.3     1  UNL1       -0.0068
     31 C          -2.4332  -12.1705   -2.9484 C.3     1  UNL1       -0.0068
     32 O          -0.7671   -9.0549   -1.7031 O.2     1  UNL1       -0.2723
     33 O           2.3960  -10.8769   -3.9969 O.2     1  UNL1       -0.2735
     34 O           2.4395   -7.8319   -2.0653 O.2     1  UNL1       -0.2738
     35 C           1.7325   -6.6073    3.0276 C.ar    1  UNL1        0.1259
     36 O           1.6619   -5.2323    2.6738 O.3     1  UNL1       -0.4893
     37 C           1.1260   -4.2686    3.6174 C.3     1  UNL1        0.1128
     38 C          -0.2737   -4.3389    4.2633 C.3     1  UNL1        0.0818
     39 O          -0.9681   -5.5532    4.2991 O.3     1  UNL1       -0.3742
     40 C          -1.0606   -6.2637    3.0569 C.3     1  UNL1        0.0712
     41 C          -1.2215   -6.0170    1.5147 C.3     1  UNL1        0.0712
     42 O          -1.1221   -4.7511    0.9138 O.3     1  UNL1       -0.3725
     43 C          -1.6889   -3.8121    1.8209 C.3     1  UNL1        0.0987
     44 C          -3.1592   -4.0196    2.6709 C.3     1  UNL1        0.1822
     45 O          -3.7287   -5.2586    3.1765 O.3     1  UNL1       -0.3493
     46 C          -3.8171   -6.4530    2.4385 C.3     1  UNL1        0.0479
     47 C          -4.2029   -6.1987    1.0009 C.3     1  UNL1       -0.0415
     48 O          -3.4155   -2.9918    3.6991 O.3     1  UNL1       -0.3493
     49 C          -2.9276   -3.1580    5.0415 C.3     1  UNL1        0.0479
     50 C          -3.1217   -4.5072    5.6965 C.3     1  UNL1       -0.0415
     51 C           1.2670   -7.0773    4.3195 C.ar    1  UNL1       -0.0113
     52 H          -3.4889   -8.1486    5.6345 H       1  UNL1        0.0293
     53 H          -2.6931   -6.7753    6.3854 H       1  UNL1        0.0293
     54 H          -2.3767   -7.2636    4.7136 H       1  UNL1        0.0293
     55 H          -0.5888  -10.0406    8.8762 H       1  UNL1        0.0907
     56 H           0.1573  -10.1999    3.5237 H       1  UNL1        0.0624
     57 H           0.9044   -9.5329    1.4954 H       1  UNL1        0.0622
     58 H           1.0154   -7.4783   -0.1884 H       1  UNL1        0.0513
     59 H           1.7058   -5.9676    0.3021 H       1  UNL1        0.0513
     60 H           3.8794   -7.3188    0.6900 H       1  UNL1        0.1491
     61 H           4.8112   -9.7700   -0.8016 H       1  UNL1        0.0597
     62 H           6.5074   -8.5296   -1.0411 H       1  UNL1        0.0313
     63 H           5.7274   -7.4848   -2.2593 H       1  UNL1        0.0313
     64 H           7.0508   -9.0680   -3.6178 H       1  UNL1        0.0610
     65 H           6.0970  -11.2083   -2.0041 H       1  UNL1        0.2098
     66 H           4.7195   -9.0210   -4.4358 H       1  UNL1        0.0490
     67 H           5.0034  -10.7861   -4.2543 H       1  UNL1        0.0490
     68 H           1.3756   -9.5460   -1.2774 H       1  UNL1        0.0600
     69 H           4.0668  -11.8911   -1.4857 H       1  UNL1        0.0236
     70 H           3.6173  -12.9573   -0.1988 H       1  UNL1        0.0236
     71 H           2.7458  -13.0228   -1.7723 H       1  UNL1        0.0236
     72 H           2.3260   -9.6346    0.6291 H       1  UNL1        0.0236
     73 H           3.1310  -11.0262    1.4793 H       1  UNL1        0.0236
     74 H           3.8006  -10.0575    0.3469 H       1  UNL1        0.0236
     75 H           0.3204  -11.3105    0.5929 H       1  UNL1        0.0236
     76 H           0.5119  -12.7428   -0.4239 H       1  UNL1        0.0236
     77 H           1.4246  -12.6026    1.0869 H       1  UNL1        0.0236
     78 H           0.2758  -11.9320   -2.5673 H       1  UNL1        0.1496
     79 H          -3.4402  -10.7148   -4.3139 H       1  UNL1        0.0302
     80 H          -1.6882  -10.9347   -4.6630 H       1  UNL1        0.0302
     81 H          -1.6565  -12.9156   -3.0343 H       1  UNL1        0.0302
     82 H          -3.3810  -12.6036   -2.6359 H       1  UNL1        0.0302
     83 H           1.8077   -4.2754    4.4542 H       1  UNL1        0.0720
     84 H           1.1649   -3.2759    3.1394 H       1  UNL1        0.0720
     85 H          -0.2229   -3.6972    5.1500 H       1  UNL1        0.0594
     86 H          -1.0683   -3.7726    3.8516 H       1  UNL1        0.0594
     87 H          -0.0855   -6.1554    2.8611 H       1  UNL1        0.0583
     88 H          -1.2101   -7.3248    3.2786 H       1  UNL1        0.0583
     89 H          -0.8637   -6.9040    0.9669 H       1  UNL1        0.0583
     90 H          -2.1912   -6.1278    1.1956 H       1  UNL1        0.0583
     91 H          -0.7853   -3.8578    2.3543 H       1  UNL1        0.0610
     92 H          -1.5209   -2.7521    1.5985 H       1  UNL1        0.0610
     93 H          -3.8654   -3.7137    1.9000 H       1  UNL1        0.0933
     94 H          -2.8630   -6.8971    2.5208 H       1  UNL1        0.0558
     95 H          -4.1852   -7.3754    2.9157 H       1  UNL1        0.0558
     96 H          -3.8105   -5.2446    0.6142 H       1  UNL1        0.0252
     97 H          -3.7754   -6.9594    0.3362 H       1  UNL1        0.0252
     98 H          -5.2750   -6.1380    0.9575 H       1  UNL1        0.0252
     99 H          -1.9037   -2.8143    5.0505 H       1  UNL1        0.0558
    100 H          -3.3280   -2.4088    5.7293 H       1  UNL1        0.0558
    101 H          -2.8868   -5.3027    5.0202 H       1  UNL1        0.0252
    102 H          -2.4541   -4.6633    6.5521 H       1  UNL1        0.0252
    103 H          -4.1604   -4.7191    5.9474 H       1  UNL1        0.0252
    104 H           0.9990   -6.3575    5.0898 H       1  UNL1        0.0660
@<TRIPOS>BOND
     1     1     2    1
     2     2     3   ar
     3     3     4   ar
     4     4     5   ar
     5     5     6   ar
     6     2     6   ar
     7     3     7    1
     8     7     8   ar
     9     8     9   ar
    10     9    10   ar
    11    10    11    1
    12    11    12    1
    13    12    13   am
    14    14    15    1
    15    15    16    1
    16    16    17    1
    17    16    18    1
    18    18    19    1
    19    14    19    1
    20    19    20   am
    21    22    23    1
    22    22    24    1
    23    22    25    1
    24    21    26    1
    25    26    27   am
    26    27    28    1
    27    28    29    1
    28    28    30    1
    29    30    31    1
    30    28    31    1
    31    27    32    2
    32    20    33    2
    33    13    34    2
    34    10    35   ar
    35    35    36    1
    36    36    37    1
    37    37    38    1
    38    38    39    1
    39    39    40    1
    40    40    41    1
    41    41    42    1
    42    42    43    1
    43    43    44    1
    44    44    45    1
    45    45    46    1
    46    46    47    1
    47    44    48    1
    48    48    49    1
    49    49    50    1
    50    35    51   ar
    51     7    51   ar
    52     1    52    1
    53     1    53    1
    54     1    54    1
    55     5    55    1
    56     8    56    1
    57     9    57    1
    58    11    58    1
    59    11    59    1
    60    12    60    1
    61    15    62    1
    62    15    63    1
    63    16    64    1
    64    17    65    1
    65    18    66    1
    66    18    67    1
    67    21    68    1
    68    23    69    1
    69    23    70    1
    70    23    71    1
    71    24    72    1
    72    24    73    1
    73    24    74    1
    74    25    75    1
    75    25    76    1
    76    25    77    1
    77    26    78    1
    78    30    79    1
    79    30    80    1
    80    31    81    1
    81    31    82    1
    82    37    83    1
    83    37    84    1
    84    38    85    1
    85    38    86    1
    86    40    87    1
    87    40    88    1
    88    41    89    1
    89    41    90    1
    90    43    91    1
    91    43    92    1
    92    44    93    1
    93    46    94    1
    94    46    95    1
    95    47    96    1
    96    47    97    1
    97    47    98    1
    98    49    99    1
    99    49   100    1
   100    50   101    1
   101    50   102    1
   102    50   103    1
   103    51   104    1
   104    21    22    1
   105    21    20    1
   106    14    61    1
   107    14    13    1
