@<TRIPOS>MOLECULE
*****
 49 50 0 0 0
SMALL
GASTEIGER

@<TRIPOS>ATOM
      1 BR         -1.5809    0.5079   -0.0417 Br      1  UNL1       -0.0464
      2 C           0.2861    0.1149    0.0089 C.ar    1  UNL1        0.0629
      3 C           1.0748    1.2757    0.1108 C.ar    1  UNL1       -0.0021
      4 C           2.4671    1.2434    0.2399 C.ar    1  UNL1        0.1258
      5 O           3.0227    2.4695    0.4854 O.3     1  UNL1       -0.4948
      6 C           4.3830    2.6617    0.8801 C.3     1  UNL1        0.0788
      7 C           3.1044    0.0233    0.0502 C.ar    1  UNL1        0.0118
      8 C           4.5902   -0.0657   -0.1965 C.3     1  UNL1        0.0277
      9 N           5.1378    0.5604   -1.4342 N.3     1  UNL1       -0.2945
     10 C           4.3415    0.2489   -2.6529 C.3     1  UNL1        0.0190
     11 C           4.8432    1.6051   -3.2232 C.3     1  UNL1        0.0516
     12 N           3.8886    2.4154   -3.9896 N.am    1  UNL1       -0.2758
     13 C           4.3001    3.1843   -5.0400 C.2     1  UNL1        0.4011
     14 O           3.3703    3.9082   -5.7073 O.3     1  UNL1       -0.4447
     15 C           1.9572    3.9972   -5.3999 C.3     1  UNL1        0.1068
     16 C           1.2891    2.6164   -5.4361 C.3     1  UNL1       -0.0253
     17 C           1.7750    4.7662   -4.0873 C.3     1  UNL1       -0.0253
     18 C           1.3168    4.8358   -6.5223 C.3     1  UNL1       -0.0253
     19 O           5.4886    3.2251   -5.3904 O.2     1  UNL1       -0.2265
     20 C           4.8797    2.0119   -1.7689 C.3     1  UNL1        0.0190
     21 C           2.3149   -1.1633   -0.0018 C.ar    1  UNL1       -0.0110
     22 C           0.9015   -1.1411   -0.0021 C.ar    1  UNL1        0.1345
     23 O           0.3498   -2.3973   -0.0353 O.3     1  UNL1       -0.4940
     24 C          -1.0657   -2.5230   -0.0373 C.3     1  UNL1        0.0788
     25 H           0.5800    2.2448    0.0984 H       1  UNL1        0.0666
     26 H           4.5702    2.3882    1.9128 H       1  UNL1        0.0660
     27 H           5.1366    2.1104    0.3436 H       1  UNL1        0.0660
     28 H           4.6615    3.6910    0.6310 H       1  UNL1        0.0660
     29 H           5.0971    0.2630    0.7224 H       1  UNL1        0.0477
     30 H           4.8936   -1.1217   -0.2110 H       1  UNL1        0.0477
     31 H           4.6809   -0.6308   -3.1948 H       1  UNL1        0.0445
     32 H           3.2557    0.1911   -2.5044 H       1  UNL1        0.0445
     33 H           5.8556    1.6153   -3.6335 H       1  UNL1        0.0524
     34 H           2.9794    2.5784   -3.5822 H       1  UNL1        0.1524
     35 H           1.6857    1.8975   -4.7205 H       1  UNL1        0.0268
     36 H           0.2191    2.6939   -5.2318 H       1  UNL1        0.0268
     37 H           1.4410    2.1471   -6.4155 H       1  UNL1        0.0268
     38 H           2.2345    5.7601   -4.1637 H       1  UNL1        0.0268
     39 H           0.7169    4.8817   -3.8419 H       1  UNL1        0.0268
     40 H           2.2637    4.2973   -3.2318 H       1  UNL1        0.0268
     41 H           1.7712    5.8305   -6.5932 H       1  UNL1        0.0268
     42 H           1.4509    4.3619   -7.5017 H       1  UNL1        0.0268
     43 H           0.2422    4.9600   -6.3465 H       1  UNL1        0.0268
     44 H           3.9186    2.4815   -1.5301 H       1  UNL1        0.0445
     45 H           5.6775    2.7369   -1.5597 H       1  UNL1        0.0445
     46 H           2.8169   -2.1337   -0.0538 H       1  UNL1        0.0659
     47 H          -1.4932   -2.0990    0.8768 H       1  UNL1        0.0660
     48 H          -1.4835   -2.0886   -0.9505 H       1  UNL1        0.0660
     49 H          -1.3463   -3.5808   -0.0453 H       1  UNL1        0.0660
@<TRIPOS>BOND
     1     1     2    1
     2     2     3   ar
     3     3     4   ar
     4     4     5    1
     5     5     6    1
     6     4     7   ar
     7     7     8    1
     8     8     9    1
     9     9    10    1
    10    10    11    1
    11    11    12    1
    12    12    13   am
    13    13    14    1
    14    14    15    1
    15    15    16    1
    16    15    17    1
    17    15    18    1
    18    13    19    2
    19    11    20    1
    20     9    20    1
    21     7    21   ar
    22    21    22   ar
    23     2    22   ar
    24    22    23    1
    25    23    24    1
    26     3    25    1
    27     6    26    1
    28     6    27    1
    29     6    28    1
    30     8    29    1
    31     8    30    1
    32    10    31    1
    33    10    32    1
    34    11    33    1
    35    12    34    1
    36    16    35    1
    37    16    36    1
    38    16    37    1
    39    17    38    1
    40    17    39    1
    41    17    40    1
    42    18    41    1
    43    18    42    1
    44    18    43    1
    45    20    44    1
    46    20    45    1
    47    21    46    1
    48    24    47    1
    49    24    48    1
    50    24    49    1
