@<TRIPOS>MOLECULE
*****
 89 91 0 0 0
SMALL
GASTEIGER

@<TRIPOS>ATOM
      1 C           0.9341   -0.0395   -0.1323 C.3     1  UNL1       -0.0579
      2 C           0.4502    1.4091   -0.0632 C.3     1  UNL1       -0.0108
      3 C           0.8851    2.0695   -1.3583 C.3     1  UNL1       -0.0579
      4 C          -1.0742    1.4336   -0.0778 C.3     1  UNL1       -0.0579
      5 C           1.0777    2.1698    1.1666 C.3     1  UNL1        0.1045
      6 N           0.7284    1.5749    2.4550 N.am    1  UNL1       -0.3016
      7 C           1.7360    1.2609    3.3437 C.2     1  UNL1        0.2394
      8 C           1.4991    0.5165    4.5580 C.3     1  UNL1        0.1237
      9 O           1.7947   -0.7981    4.0530 O.3     1  UNL1       -0.3683
     10 C           0.9949   -1.6381    3.1572 C.3     1  UNL1        0.0716
     11 C          -0.6053   -1.7686    3.0599 C.3     1  UNL1        0.0710
     12 O          -1.4690   -0.6110    3.1663 O.3     1  UNL1       -0.3775
     13 C          -1.2514    0.0081    4.4164 C.3     1  UNL1        0.0478
     14 C          -1.3312   -0.6151    5.8267 C.3     1  UNL1       -0.0292
     15 C          -0.7128   -2.0155    6.1248 C.3     1  UNL1       -0.0475
     16 C           0.7911   -2.1480    6.2271 C.3     1  UNL1       -0.0349
     17 C           1.4295   -1.3095    7.2593 C.2     1  UNL1       -0.0911
     18 C           2.3053   -1.8846    8.0743 C.2     1  UNL1       -0.1026
     19 O           2.9662    1.4521    3.1703 O.2     1  UNL1       -0.2733
     20 C           2.6374    2.2437    0.9768 C.2     1  UNL1        0.2371
     21 N           3.2317    3.4727    1.0421 N.am    1  UNL1       -0.2858
     22 C           4.4401    3.6923    0.2481 C.3     1  UNL1        0.1047
     23 C           4.1527    3.4889   -1.2590 C.2     1  UNL1        0.2339
     24 N           5.2132    3.4221   -2.1315 N.am    1  UNL1       -0.3097
     25 C           4.9386    3.2424   -3.5502 C.3     1  UNL1        0.0369
     26 C           5.2000    4.4729   -4.3801 C.ar    1  UNL1       -0.0303
     27 C           5.3011    5.7460   -3.8100 C.ar    1  UNL1       -0.0565
     28 C           5.3524    6.8852   -4.6078 C.ar    1  UNL1       -0.0532
     29 C           5.4878    6.7670   -5.9877 C.ar    1  UNL1       -0.0095
     30 C           5.6749    7.9507   -6.8202 C.ar    1  UNL1        0.0417
     31 C           4.8710    8.4101   -7.8450 C.ar    1  UNL1        0.0531
     32 C           3.6066    7.7767   -8.2852 C.3     1  UNL1       -0.0212
     33 N           5.3150    9.5559   -8.4846 N.ar    1  UNL1       -0.2520
     34 C           6.4477    9.9473   -7.9437 C.ar    1  UNL1        0.0655
     35 S           7.0395    8.9804   -6.6542 S.2     1  UNL1       -0.0752
     36 C           5.3845    5.4955   -6.5699 C.ar    1  UNL1       -0.0532
     37 C           5.2343    4.3588   -5.7748 C.ar    1  UNL1       -0.0565
     38 O           3.0258    3.5198   -1.7062 O.2     1  UNL1       -0.2738
     39 C           4.7459    5.1679    0.4694 C.3     1  UNL1        0.0018
     40 C           3.4715    5.7577    1.0938 C.3     1  UNL1        0.0731
     41 O           3.7659    6.9189    1.8477 O.3     1  UNL1       -0.3902
     42 C           2.9001    4.5994    1.8969 C.3     1  UNL1        0.0416
     43 O           3.3369    1.2520    0.7431 O.2     1  UNL1       -0.2735
     44 H           0.5731   -0.5550   -1.0227 H       1  UNL1        0.0236
     45 H           0.5773   -0.5710    0.7356 H       1  UNL1        0.0236
     46 H           2.0201   -0.1277   -0.1760 H       1  UNL1        0.0236
     47 H           0.4926    1.6144   -2.2700 H       1  UNL1        0.0236
     48 H           0.6540    3.1434   -1.3715 H       1  UNL1        0.0236
     49 H           1.9449    1.8634   -1.4157 H       1  UNL1        0.0236
     50 H          -1.4843    0.9174    0.7893 H       1  UNL1        0.0236
     51 H          -1.4468    2.4627   -0.0966 H       1  UNL1        0.0236
     52 H          -1.4487    0.9273   -0.9779 H       1  UNL1        0.0236
     53 H           0.6465    3.1783    1.1757 H       1  UNL1        0.0600
     54 H          -0.2583    1.3312    2.5841 H       1  UNL1        0.1495
     55 H           2.1178    0.7819    5.4222 H       1  UNL1        0.0656
     56 H           0.6068    0.8552    5.0821 H       1  UNL1        0.0656
     57 H           1.3789   -1.4011    2.1841 H       1  UNL1        0.0583
     58 H           1.3492   -2.6785    3.3436 H       1  UNL1        0.0583
     59 H          -0.8731   -2.3169    2.1586 H       1  UNL1        0.0583
     60 H          -1.0043   -2.4436    3.7895 H       1  UNL1        0.0583
     61 H          -0.2536   -0.1644    4.2777 H       1  UNL1        0.0560
     62 H          -1.3274    1.1155    4.4080 H       1  UNL1        0.0560
     63 H          -0.8791    0.0852    6.5547 H       1  UNL1        0.0287
     64 H          -2.3912   -0.6388    6.0357 H       1  UNL1        0.0287
     65 H          -1.1039   -2.3913    7.0611 H       1  UNL1        0.0269
     66 H          -1.0629   -2.7648    5.4317 H       1  UNL1        0.0269
     67 H           1.1826   -3.1680    6.1084 H       1  UNL1        0.0307
     68 H           1.2032   -1.7905    5.3576 H       1  UNL1        0.0307
     69 H           1.2167   -0.2442    7.3171 H       1  UNL1        0.0566
     70 H           2.7388   -1.3267    8.8858 H       1  UNL1        0.0532
     71 H           2.5560   -2.9270    7.9057 H       1  UNL1        0.0532
     72 H           5.2473    3.0228    0.5685 H       1  UNL1        0.0597
     73 H           6.1214    3.7607   -1.8564 H       1  UNL1        0.1491
     74 H           5.5752    2.4228   -3.8908 H       1  UNL1        0.0512
     75 H           3.8948    2.9392   -3.7216 H       1  UNL1        0.0512
     76 H           5.3349    5.8706   -2.7343 H       1  UNL1        0.0621
     77 H           5.2546    7.8633   -4.1454 H       1  UNL1        0.0624
     78 H           2.7767    8.4758   -8.1743 H       1  UNL1        0.0293
     79 H           3.6971    7.4560   -9.3249 H       1  UNL1        0.0293
     80 H           3.3664    6.8937   -7.6852 H       1  UNL1        0.0293
     81 H           6.9732   10.8278   -8.2943 H       1  UNL1        0.0907
     82 H           5.3832    5.3836   -7.6522 H       1  UNL1        0.0624
     83 H           5.1558    3.3828   -6.2498 H       1  UNL1        0.0621
     84 H           4.9867    5.6927   -0.4585 H       1  UNL1        0.0313
     85 H           5.6023    5.2784    1.1384 H       1  UNL1        0.0313
     86 H           2.7444    6.0266    0.3190 H       1  UNL1        0.0610
     87 H           4.4742    6.7137    2.4814 H       1  UNL1        0.2098
     88 H           3.3991    4.4974    2.8736 H       1  UNL1        0.0490
     89 H           1.8309    4.6874    2.1021 H       1  UNL1        0.0490
@<TRIPOS>BOND
     1     1     2    1
     2     2     3    1
     3     2     4    1
     4     2     5    1
     5     5     6    1
     6     6     7   am
     7     7     8    1
     8     8     9    1
     9     9    10    1
    10    10    11    1
    11    11    12    1
    12    12    13    1
    13    13    14    1
    14    14    15    1
    15    15    16    1
    16    16    17    1
    17    17    18    2
    18     7    19    2
    19     5    20    1
    20    20    21   am
    21    21    22    1
    22    23    24   am
    23    24    25    1
    24    25    26    1
    25    26    27   ar
    26    27    28   ar
    27    28    29   ar
    28    29    30    1
    29    30    31   ar
    30    31    32    1
    31    31    33   ar
    32    33    34   ar
    33    34    35   ar
    34    30    35   ar
    35    29    36   ar
    36    36    37   ar
    37    26    37   ar
    38    23    38    2
    39    22    39    1
    40    39    40    1
    41    40    41    1
    42    40    42    1
    43    21    42    1
    44    20    43    2
    45     1    44    1
    46     1    45    1
    47     1    46    1
    48     3    47    1
    49     3    48    1
    50     3    49    1
    51     4    50    1
    52     4    51    1
    53     4    52    1
    54     5    53    1
    55     6    54    1
    56     8    55    1
    57     8    56    1
    58    10    57    1
    59    10    58    1
    60    11    59    1
    61    11    60    1
    62    13    61    1
    63    13    62    1
    64    14    63    1
    65    14    64    1
    66    15    65    1
    67    15    66    1
    68    16    67    1
    69    16    68    1
    70    17    69    1
    71    18    70    1
    72    18    71    1
    73    24    73    1
    74    25    74    1
    75    25    75    1
    76    27    76    1
    77    28    77    1
    78    32    78    1
    79    32    79    1
    80    32    80    1
    81    34    81    1
    82    36    82    1
    83    37    83    1
    84    39    84    1
    85    39    85    1
    86    40    86    1
    87    41    87    1
    88    42    88    1
    89    42    89    1
    90    22    72    1
    91    22    23    1
