@<TRIPOS>MOLECULE
*****
 89 92 0 0 0
SMALL
GASTEIGER

@<TRIPOS>ATOM
      1 C          -5.7000   -8.4345   -2.4570 C.3     1  UNL1       -0.0212
      2 C          -5.1513   -9.0694   -3.6596 C.ar    1  UNL1        0.0531
      3 C          -3.8040   -9.0623   -4.0210 C.ar    1  UNL1        0.0418
      4 S          -3.7519   -9.5518   -5.7130 S.2     1  UNL1       -0.0752
      5 C          -5.3976  -10.0713   -5.5998 C.ar    1  UNL1        0.0655
      6 N          -6.0411   -9.6670   -4.5316 N.ar    1  UNL1       -0.2520
      7 C          -2.6149   -8.8026   -3.0871 C.ar    1  UNL1       -0.0061
      8 C          -1.4202   -7.9758   -3.4155 C.ar    1  UNL1       -0.0529
      9 C          -0.2182   -7.8714   -2.3917 C.ar    1  UNL1       -0.0530
     10 C          -0.2687   -8.5831   -0.9656 C.ar    1  UNL1        0.0113
     11 C           0.8740   -8.2362    0.0228 C.3     1  UNL1        0.0403
     12 N           2.2040   -8.5516   -0.4835 N.am    1  UNL1       -0.3095
     13 C           3.3398   -8.0023   -0.9758 C.2     1  UNL1        0.2339
     14 C           4.4105   -9.0898   -1.5156 C.3     1  UNL1        0.1047
     15 C           5.7937   -8.5426   -1.8827 C.3     1  UNL1        0.0018
     16 C           6.2621   -9.5049   -2.9744 C.3     1  UNL1        0.0731
     17 O           6.8052  -10.7094   -2.4149 O.3     1  UNL1       -0.3902
     18 C           4.9837   -9.8083   -3.7482 C.3     1  UNL1        0.0416
     19 N           3.9383   -9.8154   -2.7381 N.am    1  UNL1       -0.2858
     20 C           2.7747  -10.5278   -3.0296 C.2     1  UNL1        0.2371
     21 C           1.7441  -10.7814   -1.9184 C.3     1  UNL1        0.1045
     22 C           2.2531  -11.4274   -0.4821 C.3     1  UNL1       -0.0108
     23 C           3.2633  -12.4139   -1.0013 C.3     1  UNL1       -0.0579
     24 C           2.9326  -10.6694    0.7788 C.3     1  UNL1       -0.0579
     25 C           1.0759  -12.0951    0.2277 C.3     1  UNL1       -0.0579
     26 N           0.6123  -11.5881   -2.3315 N.am    1  UNL1       -0.3009
     27 C          -0.5712  -11.0508   -2.5985 C.2     1  UNL1        0.2508
     28 C          -1.8087  -11.8016   -2.6032 C.3     1  UNL1        0.1868
     29 F          -2.5050  -11.8852   -1.4158 F       1  UNL1       -0.2320
     30 C          -2.3706  -11.6328   -3.9932 C.3     1  UNL1       -0.0068
     31 C          -2.3376  -12.9198   -3.3184 C.3     1  UNL1       -0.0068
     32 O          -0.5482   -9.9881   -2.9358 O.2     1  UNL1       -0.2723
     33 O           2.5095  -10.9089   -4.1741 O.2     1  UNL1       -0.2735
     34 O           3.4891   -6.7939   -0.9852 O.2     1  UNL1       -0.2738
     35 C          -1.3942   -9.5583   -0.6753 C.ar    1  UNL1        0.1259
     36 O          -1.5445  -10.2413    0.6009 O.3     1  UNL1       -0.4893
     37 C          -2.7931  -10.9852    0.9532 C.3     1  UNL1        0.1128
     38 C          -4.2881  -10.3274    0.7817 C.3     1  UNL1        0.0818
     39 O          -4.5830   -8.9951    0.2069 O.3     1  UNL1       -0.3742
     40 C          -3.5192   -8.1491   -0.1859 C.3     1  UNL1        0.0712
     41 C          -2.7077   -7.1420    0.4943 C.3     1  UNL1        0.0715
     42 O          -2.2239   -7.7446    1.6669 O.3     1  UNL1       -0.3703
     43 C          -3.2251   -8.3256    2.4693 C.3     1  UNL1        0.1028
     44 C          -4.6256   -7.6563    2.3554 C.2     1  UNL1        0.1458
     45 H          -5.4164   -8.0915    1.6893 H       1  UNL1        0.1051
     46 O          -4.8780   -6.5572    2.8319 O.2     1  UNL1       -0.2986
     47 C          -2.5932   -9.6022   -1.7653 C.ar    1  UNL1       -0.0113
     48 H          -6.0868   -7.4520   -2.7008 H       1  UNL1        0.0293
     49 H          -6.3582   -9.0589   -1.8568 H       1  UNL1        0.0293
     50 H          -4.9238   -8.1538   -1.8047 H       1  UNL1        0.0293
     51 H          -5.8970  -10.6298   -6.3843 H       1  UNL1        0.0907
     52 H          -1.2766   -7.7701   -4.5052 H       1  UNL1        0.0624
     53 H           0.8417   -7.8458   -2.8730 H       1  UNL1        0.0622
     54 H           0.8906   -7.1736    0.1766 H       1  UNL1        0.0513
     55 H           0.7198   -8.8153    0.9576 H       1  UNL1        0.0513
     56 H           2.2390   -9.5091   -0.5639 H       1  UNL1        0.1491
     57 H           4.7553   -9.8156   -0.7777 H       1  UNL1        0.0597
     58 H           6.4793   -8.5641   -1.0208 H       1  UNL1        0.0313
     59 H           5.7013   -7.5169   -2.2327 H       1  UNL1        0.0313
     60 H           7.0461   -9.0626   -3.5900 H       1  UNL1        0.0610
     61 H           6.0992  -11.2131   -1.9758 H       1  UNL1        0.2098
     62 H           4.7423   -9.0101   -4.4532 H       1  UNL1        0.0490
     63 H           5.0180  -10.7750   -4.2604 H       1  UNL1        0.0490
     64 H           1.3768   -9.7662   -1.9540 H       1  UNL1        0.0600
     65 H           4.0831  -11.8767   -1.4793 H       1  UNL1        0.0236
     66 H           3.6905  -12.9887   -0.1948 H       1  UNL1        0.0236
     67 H           2.7945  -13.0430   -1.7635 H       1  UNL1        0.0236
     68 H           2.2618   -9.9998    1.3339 H       1  UNL1        0.0236
     69 H           3.4030  -11.2797    1.5450 H       1  UNL1        0.0236
     70 H           3.7357  -10.0254    0.5002 H       1  UNL1        0.0236
     71 H           0.4168  -11.3229    0.6199 H       1  UNL1        0.0236
     72 H           0.5004  -12.7560   -0.4174 H       1  UNL1        0.0236
     73 H           1.4270  -12.6648    1.0866 H       1  UNL1        0.0236
     74 H           0.5681  -12.5330   -2.5579 H       1  UNL1        0.1496
     75 H          -3.3853  -11.3260   -4.1053 H       1  UNL1        0.0302
     76 H          -1.6525  -11.1852   -4.6928 H       1  UNL1        0.0302
     77 H          -1.5597  -13.6139   -3.1283 H       1  UNL1        0.0302
     78 H          -3.3267  -13.0862   -2.8631 H       1  UNL1        0.0302
     79 H          -2.7735  -11.9671    0.4729 H       1  UNL1        0.0720
     80 H          -2.6670  -11.3129    2.0167 H       1  UNL1        0.0720
     81 H          -4.8655  -10.5465    1.7031 H       1  UNL1        0.0594
     82 H          -4.9620  -10.8995    0.1516 H       1  UNL1        0.0594
     83 H          -2.8817   -8.8736    0.1280 H       1  UNL1        0.0583
     84 H          -3.4153   -7.7970   -1.2145 H       1  UNL1        0.0583
     85 H          -1.8261   -6.8926   -0.1234 H       1  UNL1        0.0583
     86 H          -3.4315   -6.3532    0.5323 H       1  UNL1        0.0583
     87 H          -2.5058   -8.2154    3.2548 H       1  UNL1        0.0636
     88 H          -3.3811   -9.2813    3.0221 H       1  UNL1        0.0636
     89 H          -3.5439  -10.2032   -1.5454 H       1  UNL1        0.0660
@<TRIPOS>BOND
     1     1     2    1
     2     2     3   ar
     3     3     4   ar
     4     4     5   ar
     5     5     6   ar
     6     2     6   ar
     7     3     7    1
     8     7     8   ar
     9     8     9   ar
    10     9    10   ar
    11    10    11    1
    12    11    12    1
    13    12    13   am
    14    14    15    1
    15    15    16    1
    16    16    17    1
    17    16    18    1
    18    18    19    1
    19    14    19    1
    20    19    20   am
    21    22    23    1
    22    22    24    1
    23    22    25    1
    24    21    26    1
    25    26    27   am
    26    27    28    1
    27    28    29    1
    28    28    30    1
    29    30    31    1
    30    28    31    1
    31    27    32    2
    32    20    33    2
    33    13    34    2
    34    10    35   ar
    35    35    36    1
    36    36    37    1
    37    37    38    1
    38    38    39    1
    39    39    40    1
    40    40    41    1
    41    41    42    1
    42    42    43    1
    43    43    44    1
    44    44    45    1
    45    44    46    2
    46    35    47   ar
    47     7    47   ar
    48     1    48    1
    49     1    49    1
    50     1    50    1
    51     5    51    1
    52     8    52    1
    53     9    53    1
    54    11    54    1
    55    11    55    1
    56    12    56    1
    57    15    58    1
    58    15    59    1
    59    16    60    1
    60    17    61    1
    61    18    62    1
    62    18    63    1
    63    21    64    1
    64    23    65    1
    65    23    66    1
    66    23    67    1
    67    24    68    1
    68    24    69    1
    69    24    70    1
    70    25    71    1
    71    25    72    1
    72    25    73    1
    73    26    74    1
    74    30    75    1
    75    30    76    1
    76    31    77    1
    77    31    78    1
    78    37    79    1
    79    37    80    1
    80    38    81    1
    81    38    82    1
    82    40    83    1
    83    40    84    1
    84    41    85    1
    85    41    86    1
    86    43    87    1
    87    43    88    1
    88    47    89    1
    89    14    57    1
    90    14    13    1
    91    21    22    1
    92    21    20    1
