@<TRIPOS>MOLECULE
*****
 132 139 0 0 0
SMALL
GASTEIGER

@<TRIPOS>ATOM
      1 C          -5.7381   -8.4287   -2.4502 C.3     1  UNL1       -0.0212
      2 C          -5.1585   -9.0462   -3.6460 C.ar    1  UNL1        0.0531
      3 C          -3.7996   -9.0282   -3.9746 C.ar    1  UNL1        0.0418
      4 S          -3.7401   -9.4567   -5.6821 S.2     1  UNL1       -0.0752
      5 C          -5.3757  -10.0324   -5.6026 C.ar    1  UNL1        0.0655
      6 N          -6.0299   -9.6674   -4.5275 N.ar    1  UNL1       -0.2520
      7 C          -2.5993   -8.7896   -3.0362 C.ar    1  UNL1       -0.0061
      8 C          -1.4516   -7.9894   -3.3389 C.ar    1  UNL1       -0.0529
      9 C          -0.3001   -7.9189   -2.3888 C.ar    1  UNL1       -0.0530
     10 C          -0.2733   -8.6129   -1.0817 C.ar    1  UNL1        0.0113
     11 C           0.8960   -8.2445   -0.1155 C.3     1  UNL1        0.0403
     12 N           2.2348   -8.5432   -0.5599 N.am    1  UNL1       -0.3095
     13 C           3.3737   -7.9665   -1.0132 C.2     1  UNL1        0.2339
     14 C           4.4135   -9.0678   -1.5432 C.3     1  UNL1        0.1047
     15 C           5.7977   -8.5268   -1.9015 C.3     1  UNL1        0.0018
     16 C           6.2673   -9.4943   -2.9845 C.3     1  UNL1        0.0731
     17 O           6.8111  -10.6867   -2.4014 O.3     1  UNL1       -0.3902
     18 C           4.9905   -9.8011   -3.7615 C.3     1  UNL1        0.0416
     19 N           3.9414   -9.8032   -2.7547 N.am    1  UNL1       -0.2858
     20 C           2.8035  -10.5590   -3.0354 C.2     1  UNL1        0.2371
     21 C           1.7734  -10.8603   -1.9119 C.3     1  UNL1        0.1045
     22 C           2.2785  -11.4712   -0.4764 C.3     1  UNL1       -0.0108
     23 C           3.2906  -12.4683   -0.9813 C.3     1  UNL1       -0.0579
     24 C           2.9467  -10.7154    0.7840 C.3     1  UNL1       -0.0579
     25 C           1.0874  -12.1295    0.2394 C.3     1  UNL1       -0.0579
     26 N           0.6398  -11.7022   -2.3079 N.am    1  UNL1       -0.3009
     27 C          -0.4908  -11.1864   -2.7075 C.2     1  UNL1        0.2508
     28 C          -1.7762  -11.8639   -2.6378 C.3     1  UNL1        0.1868
     29 F          -2.4456  -11.9209   -1.4239 F       1  UNL1       -0.2320
     30 C          -2.4127  -11.7096   -3.9971 C.3     1  UNL1       -0.0068
     31 C          -2.3242  -13.0119   -3.3434 C.3     1  UNL1       -0.0068
     32 O          -0.4038  -10.0826   -3.2920 O.2     1  UNL1       -0.2723
     33 O           2.5654  -10.9414   -4.1861 O.2     1  UNL1       -0.2735
     34 O           3.5474   -6.7612   -1.0040 O.2     1  UNL1       -0.2738
     35 C          -1.3743   -9.5395   -0.7834 C.ar    1  UNL1        0.1259
     36 O          -1.4611  -10.1573    0.5311 O.3     1  UNL1       -0.4893
     37 C          -2.6935  -10.8502    1.0407 C.3     1  UNL1        0.1129
     38 C          -3.9763   -9.9656    1.3065 C.3     1  UNL1        0.0823
     39 O          -4.5113   -9.1121    0.2696 O.3     1  UNL1       -0.3672
     40 C          -3.5988   -8.1125   -0.0313 C.3     1  UNL1        0.1238
     41 C          -2.8984   -6.9929    0.5667 C.2     1  UNL1        0.2391
     42 N          -1.5613   -7.2744    0.8844 N.am    1  UNL1       -0.3081
     43 C          -1.0350   -6.3467    1.7677 C.3     1  UNL1        0.0486
     44 C           0.3873   -6.2450    2.2919 C.3     1  UNL1        0.0189
     45 N           0.2296   -4.7799    2.2014 N.3     1  UNL1       -0.2945
     46 C          -0.2760   -4.2548    3.4815 C.3     1  UNL1        0.0277
     47 C          -1.6923   -4.5573    3.9307 C.ar    1  UNL1        0.0117
     48 C          -2.7864   -3.7133    3.7549 C.ar    1  UNL1        0.1253
     49 O          -2.8284   -2.4677    3.1734 O.3     1  UNL1       -0.4948
     50 C          -1.6488   -1.8728    2.6309 C.3     1  UNL1        0.0788
     51 C          -4.0375   -4.2048    4.1727 C.ar    1  UNL1       -0.0084
     52 C          -4.2541   -5.5682    4.5133 C.ar    1  UNL1        0.0292
     53 C          -5.6420   -6.0813    4.5544 C.ar    1  UNL1        0.0099
     54 C          -6.5539   -6.0584    3.3975 C.ar    1  UNL1       -0.0006
     55 C          -7.7916   -6.6845    3.4653 C.ar    1  UNL1        0.0653
     56 C          -8.5812   -6.7088    2.3333 C.ar    1  UNL1        0.0405
     57 N          -8.1225   -6.3575    1.1091 N.ar    1  UNL1       -0.2625
     58 C          -6.8817   -5.8357    1.0601 C.ar    1  UNL1        0.0282
     59 C          -6.1541   -5.5134    2.1814 C.ar    1  UNL1       -0.0351
     60 C          -6.0605   -6.7312    5.6546 C.ar    1  UNL1        0.0160
     61 N          -7.2941   -7.3493    5.7466 N.ar    1  UNL1       -0.3171
     62 C          -7.6618   -8.0429    6.9620 C.3     1  UNL1        0.0147
     63 C          -8.2142   -7.3662    4.6972 C.ar    1  UNL1        0.2603
     64 O          -9.3034   -7.9307    4.7448 O.2     1  UNL1       -0.2670
     65 C          -3.1690   -6.4350    4.6173 C.ar    1  UNL1        0.1284
     66 O          -3.3873   -7.7829    4.7817 O.3     1  UNL1       -0.4945
     67 C          -2.2442   -8.6368    4.8307 C.3     1  UNL1        0.0788
     68 C          -1.9094   -5.8724    4.4579 C.ar    1  UNL1       -0.0115
     69 C          -0.8470   -4.9668    1.1860 C.3     1  UNL1        0.0189
     70 O          -3.4741   -5.9252    0.6865 O.2     1  UNL1       -0.2733
     71 C          -2.5280   -9.5652   -1.7705 C.ar    1  UNL1       -0.0113
     72 H          -6.1506   -7.4542   -2.6964 H       1  UNL1        0.0293
     73 H          -6.4059   -9.0701   -1.8802 H       1  UNL1        0.0293
     74 H          -4.9566   -8.1723   -1.7884 H       1  UNL1        0.0293
     75 H          -5.8652  -10.6063   -6.3885 H       1  UNL1        0.0907
     76 H          -1.2920   -7.7290   -4.4027 H       1  UNL1        0.0624
     77 H           0.7129   -7.7362   -2.8384 H       1  UNL1        0.0622
     78 H           0.9051   -7.1793    0.0041 H       1  UNL1        0.0513
     79 H           0.7743   -8.7769    0.8517 H       1  UNL1        0.0513
     80 H           2.3325   -9.5024   -0.5831 H       1  UNL1        0.1491
     81 H           4.7045   -9.8172   -0.8128 H       1  UNL1        0.0597
     82 H           6.4693   -8.5468   -1.0307 H       1  UNL1        0.0313
     83 H           5.7178   -7.5019   -2.2622 H       1  UNL1        0.0313
     84 H           7.0501   -9.0601   -3.6071 H       1  UNL1        0.0610
     85 H           6.0984  -11.2075   -1.9949 H       1  UNL1        0.2098
     86 H           4.7464   -9.0042   -4.4668 H       1  UNL1        0.0490
     87 H           5.0281  -10.7698   -4.2707 H       1  UNL1        0.0490
     88 H           1.3621   -9.8634   -1.9270 H       1  UNL1        0.0600
     89 H           4.1166  -11.9356   -1.4565 H       1  UNL1        0.0236
     90 H           3.7033  -13.0525   -0.1726 H       1  UNL1        0.0236
     91 H           2.8303  -13.1032   -1.7440 H       1  UNL1        0.0236
     92 H           2.2521  -10.0718    1.3416 H       1  UNL1        0.0236
     93 H           3.3791  -11.3748    1.5366 H       1  UNL1        0.0236
     94 H           3.7707  -10.0651    0.5575 H       1  UNL1        0.0236
     95 H           0.4288  -11.3515    0.6246 H       1  UNL1        0.0236
     96 H           0.4983  -12.7971   -0.3873 H       1  UNL1        0.0236
     97 H           1.4270  -12.7036    1.0992 H       1  UNL1        0.0236
     98 H           0.6831  -12.6719   -2.5444 H       1  UNL1        0.1496
     99 H          -3.4214  -11.3678   -4.0810 H       1  UNL1        0.0302
    100 H          -1.7176  -11.2837   -4.7289 H       1  UNL1        0.0302
    101 H          -1.5402  -13.7206   -3.2299 H       1  UNL1        0.0302
    102 H          -3.3007  -13.2433   -2.9009 H       1  UNL1        0.0302
    103 H          -2.8971  -11.7532    0.4672 H       1  UNL1        0.0720
    104 H          -2.4656  -11.2884    2.0432 H       1  UNL1        0.0720
    105 H          -4.8042  -10.6115    1.5974 H       1  UNL1        0.0594
    106 H          -3.7244   -9.2834    2.1207 H       1  UNL1        0.0594
    107 H          -2.7990   -8.7157    0.1926 H       1  UNL1        0.0656
    108 H          -3.4859   -7.7980   -1.0728 H       1  UNL1        0.0656
    109 H          -1.2299   -8.2320    0.9860 H       1  UNL1        0.1491
    110 H          -1.8045   -6.4505    2.4980 H       1  UNL1        0.0523
    111 H           0.6031   -6.6568    3.2819 H       1  UNL1        0.0445
    112 H           1.2190   -6.5838    1.6873 H       1  UNL1        0.0445
    113 H           0.3976   -4.4842    4.3097 H       1  UNL1        0.0477
    114 H          -0.0926   -3.2087    3.3848 H       1  UNL1        0.0477
    115 H          -0.9492   -1.6394    3.4397 H       1  UNL1        0.0660
    116 H          -1.2074   -2.4739    1.8290 H       1  UNL1        0.0660
    117 H          -1.8505   -0.9079    2.1645 H       1  UNL1        0.0660
    118 H          -4.8983   -3.5379    4.1525 H       1  UNL1        0.0661
    119 H          -9.6105   -7.0489    2.3732 H       1  UNL1        0.0837
    120 H          -6.4285   -5.7252    0.0798 H       1  UNL1        0.0830
    121 H          -5.2489   -4.9312    2.0637 H       1  UNL1        0.0639
    122 H          -5.4115   -6.8230    6.5220 H       1  UNL1        0.0816
    123 H          -8.5797   -7.5924    7.3501 H       1  UNL1        0.0457
    124 H          -7.8539   -9.0957    6.7307 H       1  UNL1        0.0457
    125 H          -6.8720   -7.9728    7.7142 H       1  UNL1        0.0457
    126 H          -1.7804   -8.7284    3.8406 H       1  UNL1        0.0660
    127 H          -1.5164   -8.2878    5.5702 H       1  UNL1        0.0660
    128 H          -2.5634   -9.6368    5.1399 H       1  UNL1        0.0660
    129 H          -1.0601   -6.5467    4.4503 H       1  UNL1        0.0658
    130 H          -0.5251   -4.9828    0.1341 H       1  UNL1        0.0445
    131 H          -1.7612   -4.3667    1.2172 H       1  UNL1        0.0445
    132 H          -3.4399  -10.1683   -1.5206 H       1  UNL1        0.0660
@<TRIPOS>BOND
     1     1     2    1
     2     2     3   ar
     3     3     4   ar
     4     4     5   ar
     5     5     6   ar
     6     2     6   ar
     7     3     7    1
     8     7     8   ar
     9     8     9   ar
    10     9    10   ar
    11    10    11    1
    12    11    12    1
    13    12    13   am
    14    14    15    1
    15    15    16    1
    16    16    17    1
    17    16    18    1
    18    18    19    1
    19    14    19    1
    20    19    20   am
    21    22    23    1
    22    22    24    1
    23    22    25    1
    24    21    26    1
    25    26    27   am
    26    27    28    1
    27    28    29    1
    28    28    30    1
    29    30    31    1
    30    28    31    1
    31    27    32    2
    32    20    33    2
    33    13    34    2
    34    10    35   ar
    35    35    36    1
    36    36    37    1
    37    37    38    1
    38    38    39    1
    39    39    40    1
    40    40    41    1
    41    41    42   am
    42    42    43    1
    43    43    44    1
    44    44    45    1
    45    45    46    1
    46    46    47    1
    47    47    48   ar
    48    48    49    1
    49    49    50    1
    50    48    51   ar
    51    51    52   ar
    52    52    53    1
    53    53    54   ar
    54    54    55   ar
    55    55    56   ar
    56    56    57   ar
    57    57    58   ar
    58    58    59   ar
    59    54    59   ar
    60    53    60   ar
    61    60    61   ar
    62    61    62    1
    63    61    63   ar
    64    55    63   ar
    65    63    64    2
    66    52    65   ar
    67    65    66    1
    68    66    67    1
    69    65    68   ar
    70    47    68   ar
    71    45    69    1
    72    43    69    1
    73    41    70    2
    74    35    71   ar
    75     7    71   ar
    76     1    72    1
    77     1    73    1
    78     1    74    1
    79     5    75    1
    80     8    76    1
    81     9    77    1
    82    11    78    1
    83    11    79    1
    84    12    80    1
    85    15    82    1
    86    15    83    1
    87    16    84    1
    88    17    85    1
    89    18    86    1
    90    18    87    1
    91    21    88    1
    92    23    89    1
    93    23    90    1
    94    23    91    1
    95    24    92    1
    96    24    93    1
    97    24    94    1
    98    25    95    1
    99    25    96    1
   100    25    97    1
   101    26    98    1
   102    30    99    1
   103    30   100    1
   104    31   101    1
   105    31   102    1
   106    37   103    1
   107    37   104    1
   108    38   105    1
   109    38   106    1
   110    40   107    1
   111    40   108    1
   112    42   109    1
   113    43   110    1
   114    44   111    1
   115    44   112    1
   116    46   113    1
   117    46   114    1
   118    50   115    1
   119    50   116    1
   120    50   117    1
   121    51   118    1
   122    56   119    1
   123    58   120    1
   124    59   121    1
   125    60   122    1
   126    62   123    1
   127    62   124    1
   128    62   125    1
   129    67   126    1
   130    67   127    1
   131    67   128    1
   132    68   129    1
   133    69   130    1
   134    69   131    1
   135    71   132    1
   136    14    81    1
   137    14    13    1
   138    21    22    1
   139    21    20    1
