@<TRIPOS>MOLECULE
*****
 83 86 0 0 0
SMALL
GASTEIGER

@<TRIPOS>ATOM
      1 O          -3.5978   -5.4197   -7.2066 O.3     1  UNL1       -0.4790
      2 C          -3.8580   -4.7560   -6.0430 C.2     1  UNL1        0.3308
      3 C          -2.5478   -4.6715   -5.3509 C.3     1  UNL1        0.1444
      4 O          -1.7009   -3.6948   -4.9150 O.3     1  UNL1       -0.3653
      5 C          -0.7696   -3.0366   -5.6507 C.3     1  UNL1        0.0824
      6 C           0.3821   -3.9933   -5.7653 C.3     1  UNL1        0.1129
      7 O           0.0560   -5.3864   -5.5571 O.3     1  UNL1       -0.4893
      8 C          -0.5188   -5.9646   -4.3360 C.ar    1  UNL1        0.1259
      9 C          -0.6394   -7.3582   -4.6965 C.ar    1  UNL1       -0.0113
     10 C          -1.5227   -8.1808   -3.9867 C.ar    1  UNL1       -0.0061
     11 C          -1.7736   -9.5657   -4.3586 C.ar    1  UNL1        0.0418
     12 C          -2.9729  -10.1809   -4.6931 C.ar    1  UNL1        0.0531
     13 C          -4.2928   -9.5104   -4.8903 C.3     1  UNL1       -0.0212
     14 N          -2.8980  -11.5629   -4.7936 N.ar    1  UNL1       -0.2520
     15 C          -1.6654  -11.9521   -4.5484 C.ar    1  UNL1        0.0655
     16 S          -0.5262  -10.7241   -4.2051 S.2     1  UNL1       -0.0752
     17 C          -2.2872   -7.6797   -2.9122 C.ar    1  UNL1       -0.0529
     18 C          -2.2672   -6.3385   -2.5166 C.ar    1  UNL1       -0.0530
     19 C          -1.4065   -5.3926   -3.1477 C.ar    1  UNL1        0.0113
     20 C          -2.1616   -3.8267   -2.8021 C.3     1  UNL1        0.0403
     21 N          -3.5849   -3.5097   -3.3776 N.am    1  UNL1       -0.3095
     22 C          -4.5869   -3.0366   -2.6240 C.2     1  UNL1        0.2339
     23 C          -5.6267   -2.1299   -3.3382 C.3     1  UNL1        0.1047
     24 C          -6.8740   -2.7898   -3.9189 C.3     1  UNL1        0.0018
     25 C          -7.3568   -1.7265   -4.9038 C.3     1  UNL1        0.0731
     26 O          -8.0075   -0.6627   -4.1921 O.3     1  UNL1       -0.3902
     27 C          -6.0572   -1.2193   -5.5430 C.3     1  UNL1        0.0416
     28 N          -5.0608   -1.2977   -4.4561 N.am    1  UNL1       -0.2858
     29 C          -3.8605   -0.5795   -4.5611 C.2     1  UNL1        0.2371
     30 C          -2.8319   -0.4724   -3.3506 C.3     1  UNL1        0.1045
     31 C          -3.3450    0.2780   -2.0959 C.3     1  UNL1       -0.0108
     32 C          -4.2573    1.3907   -2.5870 C.3     1  UNL1       -0.0579
     33 C          -4.1073   -0.5572   -1.0644 C.3     1  UNL1       -0.0579
     34 C          -2.1710    0.7702   -1.2573 C.3     1  UNL1       -0.0579
     35 N          -1.4885    0.0204   -3.8204 N.am    1  UNL1       -0.3009
     36 C          -0.3047   -0.6263   -3.4669 C.2     1  UNL1        0.2508
     37 C           1.0333   -0.1994   -3.9980 C.3     1  UNL1        0.1868
     38 F           2.1017   -0.7736   -3.2954 F       1  UNL1       -0.2320
     39 C           1.3415   -0.0324   -5.4765 C.3     1  UNL1       -0.0068
     40 C           1.3352    1.1547   -4.5545 C.3     1  UNL1       -0.0068
     41 O          -0.2943   -1.6063   -2.7308 O.2     1  UNL1       -0.2723
     42 O          -3.5801   -0.0051   -5.6242 O.2     1  UNL1       -0.2735
     43 O          -4.5715   -3.2778   -1.4210 O.2     1  UNL1       -0.2738
     44 O          -4.9058   -4.5016   -5.5815 O.2     1  UNL1       -0.2484
     45 H          -2.6711   -5.7482   -7.2273 H       1  UNL1        0.2951
     46 H          -2.9449   -5.2388   -4.5004 H       1  UNL1        0.0676
     47 H          -1.9292   -5.3499   -5.8535 H       1  UNL1        0.0676
     48 H          -1.4661   -2.6597   -6.3841 H       1  UNL1        0.0594
     49 H          -0.3750   -2.1612   -5.1425 H       1  UNL1        0.0594
     50 H           0.8063   -3.7482   -6.7576 H       1  UNL1        0.0720
     51 H           1.1653   -3.8315   -5.0266 H       1  UNL1        0.0720
     52 H          -0.1746   -7.7626   -5.6139 H       1  UNL1        0.0660
     53 H          -4.6834   -9.7233   -5.8888 H       1  UNL1        0.0293
     54 H          -5.0135   -9.8515   -4.1405 H       1  UNL1        0.0293
     55 H          -4.2201   -8.4209   -4.8016 H       1  UNL1        0.0293
     56 H          -1.3653  -12.9897   -4.5575 H       1  UNL1        0.0907
     57 H          -2.9982   -8.3492   -2.4219 H       1  UNL1        0.0624
     58 H          -3.1282   -6.0018   -1.9247 H       1  UNL1        0.0622
     59 H          -1.9549   -3.4397   -1.8048 H       1  UNL1        0.0513
     60 H          -1.6914   -2.9924   -3.2841 H       1  UNL1        0.0513
     61 H          -3.6597   -3.0881   -4.3176 H       1  UNL1        0.1491
     62 H          -6.1047   -1.4864   -2.6034 H       1  UNL1        0.0597
     63 H          -7.6020   -2.9727   -3.1208 H       1  UNL1        0.0313
     64 H          -6.6742   -3.7400   -4.4059 H       1  UNL1        0.0313
     65 H          -8.0782   -2.1209   -5.6234 H       1  UNL1        0.0610
     66 H          -7.3377   -0.1609   -3.6942 H       1  UNL1        0.2098
     67 H          -5.7260   -1.8855   -6.3447 H       1  UNL1        0.0490
     68 H          -6.1505   -0.1965   -5.9315 H       1  UNL1        0.0490
     69 H          -2.6308   -1.4539   -3.0006 H       1  UNL1        0.0600
     70 H          -5.1118    0.9903   -3.1487 H       1  UNL1        0.0236
     71 H          -4.6772    1.9462   -1.7522 H       1  UNL1        0.0236
     72 H          -3.7045    2.0546   -3.2556 H       1  UNL1        0.0236
     73 H          -3.4997   -1.3640   -0.6404 H       1  UNL1        0.0236
     74 H          -4.5282    0.0176   -0.2376 H       1  UNL1        0.0236
     75 H          -4.9901   -0.9544   -1.4888 H       1  UNL1        0.0236
     76 H          -1.5647   -0.0875   -0.9267 H       1  UNL1        0.0236
     77 H          -1.5370    1.4585   -1.8116 H       1  UNL1        0.0236
     78 H          -2.5411    1.2734   -0.3625 H       1  UNL1        0.0236
     79 H          -1.4538    0.9381   -4.2422 H       1  UNL1        0.1496
     80 H           2.3092   -0.3688   -5.8445 H       1  UNL1        0.0302
     81 H           0.5622   -0.1165   -6.2228 H       1  UNL1        0.0302
     82 H           0.5475    1.8821   -4.6652 H       1  UNL1        0.0302
     83 H           2.2840    1.5701   -4.2319 H       1  UNL1        0.0302
@<TRIPOS>BOND
     1     1     2    1
     2     2     3    1
     3     3     4    1
     4     4     5    1
     5     5     6    1
     6     6     7    1
     7     7     8    1
     8     8     9   ar
     9     9    10   ar
    10    10    11    1
    11    11    12   ar
    12    12    13    1
    13    12    14   ar
    14    14    15   ar
    15    15    16   ar
    16    11    16   ar
    17    10    17   ar
    18    17    18   ar
    19    18    19   ar
    20     8    19   ar
    21    19    20    1
    22    20    21    1
    23    21    22   am
    24    23    24    1
    25    24    25    1
    26    25    26    1
    27    25    27    1
    28    27    28    1
    29    23    28    1
    30    28    29   am
    31    31    32    1
    32    31    33    1
    33    31    34    1
    34    30    35    1
    35    35    36   am
    36    36    37    1
    37    37    38    1
    38    37    39    1
    39    39    40    1
    40    37    40    1
    41    36    41    2
    42    29    42    2
    43    22    43    2
    44     2    44    2
    45     1    45    1
    46     3    46    1
    47     3    47    1
    48     5    48    1
    49     5    49    1
    50     6    50    1
    51     6    51    1
    52     9    52    1
    53    13    53    1
    54    13    54    1
    55    13    55    1
    56    15    56    1
    57    17    57    1
    58    18    58    1
    59    20    59    1
    60    20    60    1
    61    21    61    1
    62    24    63    1
    63    24    64    1
    64    25    65    1
    65    26    66    1
    66    27    67    1
    67    27    68    1
    68    30    69    1
    69    32    70    1
    70    32    71    1
    71    32    72    1
    72    33    73    1
    73    33    74    1
    74    33    75    1
    75    34    76    1
    76    34    77    1
    77    34    78    1
    78    35    79    1
    79    39    80    1
    80    39    81    1
    81    40    82    1
    82    40    83    1
    83    30    31    1
    84    30    29    1
    85    23    62    1
    86    23    22    1
