@<TRIPOS>MOLECULE
*****
 91 94 0 0 0
SMALL
GASTEIGER

@<TRIPOS>ATOM
      1 O           5.6114    2.0439   -2.3977 O.2     1  UNL1       -0.2738
      2 C           6.4863    2.7654   -2.8224 C.2     1  UNL1        0.2339
      3 C           5.7008    3.4054   -3.9569 C.3     1  UNL1        0.1047
      4 C           6.7485    4.2596   -4.5476 C.3     1  UNL1        0.0018
      5 C           5.9011    5.3268   -5.1446 C.3     1  UNL1        0.0731
      6 O           5.4261    4.8259   -6.3953 O.3     1  UNL1       -0.3902
      7 C           4.7423    5.5531   -4.1494 C.3     1  UNL1        0.0416
      8 N           4.3985    4.2309   -3.6906 N.am    1  UNL1       -0.2858
      9 C           3.0783    4.1096   -3.1129 C.2     1  UNL1        0.2371
     10 C           2.3485    2.8188   -2.5489 C.3     1  UNL1        0.1045
     11 C           3.4117    1.9529   -1.9243 C.3     1  UNL1       -0.0108
     12 C           3.6165    1.0689   -3.2934 C.3     1  UNL1       -0.0579
     13 C           4.4153    3.0256   -0.9698 C.3     1  UNL1       -0.0579
     14 C           3.0589    1.0682   -0.7496 C.3     1  UNL1       -0.0579
     15 N           1.4830    2.1648   -3.6117 N.am    1  UNL1       -0.3009
     16 C           0.4851    1.2450   -3.3317 C.2     1  UNL1        0.2508
     17 C          -0.0574    0.4779   -4.5180 C.3     1  UNL1        0.1868
     18 F          -1.2841    0.9674   -4.9655 F       1  UNL1       -0.2320
     19 C           0.8155   -0.1013   -5.6205 C.3     1  UNL1       -0.0068
     20 C           0.0843   -1.0240   -4.6918 C.3     1  UNL1       -0.0068
     21 O           0.0161    1.0802   -2.2132 O.2     1  UNL1       -0.2723
     22 O           2.3770    5.1338   -3.0145 O.2     1  UNL1       -0.2735
     23 N           7.7832    2.4435   -2.4575 N.am    1  UNL1       -0.3095
     24 C           8.2511    1.1987   -1.6074 C.3     1  UNL1        0.0403
     25 C           8.9000   -0.0920   -2.4267 C.ar    1  UNL1        0.0113
     26 C           9.5670   -1.0751   -1.6424 C.ar    1  UNL1       -0.0530
     27 C           9.9966   -2.3398   -2.1729 C.ar    1  UNL1       -0.0529
     28 C           9.6721   -2.7461   -3.4642 C.ar    1  UNL1       -0.0061
     29 C          10.0838   -3.9751   -4.1059 C.ar    1  UNL1        0.0418
     30 C          10.7619   -4.0418   -5.3121 C.ar    1  UNL1        0.0531
     31 C          11.1844   -2.8703   -6.1337 C.3     1  UNL1       -0.0212
     32 N          11.0821   -5.3170   -5.7284 N.ar    1  UNL1       -0.2520
     33 C          10.6047   -6.1863   -4.8637 C.ar    1  UNL1        0.0655
     34 S           9.7340   -5.5392   -3.5292 S.2     1  UNL1       -0.0752
     35 C           8.9639   -1.8723   -4.2441 C.ar    1  UNL1       -0.0113
     36 C           8.5955   -0.6122   -3.7496 C.ar    1  UNL1        0.1259
     37 O           7.5416   -0.3648   -4.5906 O.3     1  UNL1       -0.4893
     38 C           6.6996    0.4539   -3.9044 C.3     1  UNL1        0.1128
     39 C           6.1448   -0.0964   -2.4326 C.3     1  UNL1        0.0818
     40 O           6.5498   -0.9412   -1.3768 O.3     1  UNL1       -0.3742
     41 C           6.8396   -2.1894   -1.8638 C.3     1  UNL1        0.0712
     42 C           5.8056   -3.1443   -2.3398 C.3     1  UNL1        0.0714
     43 O           4.7871   -2.6238   -3.1667 O.3     1  UNL1       -0.3735
     44 C           3.7867   -1.8701   -2.5102 C.3     1  UNL1        0.0657
     45 C           3.3147   -2.1733   -1.1353 C.2     1  UNL1       -0.0658
     46 C           3.8484   -1.6767    0.0058 C.2     1  UNL1       -0.1005
     47 H           5.3615    2.6807   -4.7117 H       1  UNL1        0.0597
     48 H           7.3264    3.6151   -5.2256 H       1  UNL1        0.0313
     49 H           7.4042    4.6347   -3.7564 H       1  UNL1        0.0313
     50 H           6.5276    6.1990   -5.2987 H       1  UNL1        0.0610
     51 H           4.7184    4.1760   -6.2198 H       1  UNL1        0.2098
     52 H           5.0613    6.0852   -3.2472 H       1  UNL1        0.0490
     53 H           3.8795    6.0309   -4.6136 H       1  UNL1        0.0490
     54 H           1.6637    3.0495   -1.7298 H       1  UNL1        0.0600
     55 H           3.6763    1.6805   -4.2000 H       1  UNL1        0.0236
     56 H           4.3606    0.3827   -3.6033 H       1  UNL1        0.0236
     57 H           2.7736    0.3715   -3.3887 H       1  UNL1        0.0236
     58 H           3.9105    3.4656   -0.1151 H       1  UNL1        0.0236
     59 H           5.2980    2.5149   -0.5144 H       1  UNL1        0.0236
     60 H           4.8315    3.8925   -1.4963 H       1  UNL1        0.0236
     61 H           2.7617    1.6206    0.1473 H       1  UNL1        0.0236
     62 H           2.3180    0.3099   -0.9670 H       1  UNL1        0.0236
     63 H           4.0076    0.6257   -0.4433 H       1  UNL1        0.0236
     64 H           1.9043    2.0224   -4.5226 H       1  UNL1        0.1496
     65 H           0.4507   -0.0265   -6.6412 H       1  UNL1        0.0302
     66 H           1.8957   -0.0911   -5.5577 H       1  UNL1        0.0302
     67 H           0.6701   -1.6240   -4.0075 H       1  UNL1        0.0302
     68 H          -0.7783   -1.5546   -5.0887 H       1  UNL1        0.0302
     69 H           8.4804    2.6134   -3.1537 H       1  UNL1        0.1491
     70 H           9.0212    1.5466   -0.9121 H       1  UNL1        0.0513
     71 H           7.4724    0.9232   -0.8659 H       1  UNL1        0.0513
     72 H           9.5660   -0.9979   -0.5519 H       1  UNL1        0.0622
     73 H          10.5369   -3.0383   -1.5423 H       1  UNL1        0.0624
     74 H          12.2709   -2.8302   -6.1975 H       1  UNL1        0.0293
     75 H          10.7391   -2.9238   -7.1295 H       1  UNL1        0.0293
     76 H          10.8782   -1.9104   -5.7063 H       1  UNL1        0.0293
     77 H          10.7539   -7.2505   -4.9877 H       1  UNL1        0.0907
     78 H           8.4970   -2.2265   -5.1793 H       1  UNL1        0.0660
     79 H           7.2814    1.3451   -4.0727 H       1  UNL1        0.0720
     80 H           5.8708    0.6757   -4.5841 H       1  UNL1        0.0720
     81 H           5.5878    0.4972   -1.7236 H       1  UNL1        0.0594
     82 H           5.4992   -0.6877   -2.9793 H       1  UNL1        0.0594
     83 H           7.2597   -1.9620   -2.7993 H       1  UNL1        0.0583
     84 H           7.5526   -2.6222   -1.1784 H       1  UNL1        0.0583
     85 H           6.3974   -3.8179   -2.9719 H       1  UNL1        0.0583
     86 H           5.3692   -3.6573   -1.5028 H       1  UNL1        0.0583
     87 H           4.0840   -0.8805   -2.2449 H       1  UNL1        0.0604
     88 H           3.0483   -1.6482   -3.2838 H       1  UNL1        0.0604
     89 H           2.2792   -2.4587   -1.1330 H       1  UNL1        0.0589
     90 H           3.2286   -1.5592    0.8874 H       1  UNL1        0.0532
     91 H           4.7942   -1.1308    0.0943 H       1  UNL1        0.0532
@<TRIPOS>BOND
     1     1     2    2
     2     3     4    1
     3     4     5    1
     4     5     6    1
     5     5     7    1
     6     7     8    1
     7     3     8    1
     8     8     9   am
     9    11    12    1
    10    11    13    1
    11    11    14    1
    12    10    15    1
    13    15    16   am
    14    16    17    1
    15    17    18    1
    16    17    19    1
    17    19    20    1
    18    17    20    1
    19    16    21    2
    20     9    22    2
    21     2    23   am
    22    23    24    1
    23    24    25    1
    24    25    26   ar
    25    26    27   ar
    26    27    28   ar
    27    28    29    1
    28    29    30   ar
    29    30    31    1
    30    30    32   ar
    31    32    33   ar
    32    33    34   ar
    33    29    34   ar
    34    28    35   ar
    35    35    36   ar
    36    25    36   ar
    37    36    37    1
    38    37    38    1
    39    38    39    1
    40    39    40    1
    41    40    41    1
    42    41    42    1
    43    42    43    1
    44    43    44    1
    45    44    45    1
    46    45    46    2
    47     4    48    1
    48     4    49    1
    49     5    50    1
    50     6    51    1
    51     7    52    1
    52     7    53    1
    53    10    54    1
    54    12    55    1
    55    12    56    1
    56    12    57    1
    57    13    58    1
    58    13    59    1
    59    13    60    1
    60    14    61    1
    61    14    62    1
    62    14    63    1
    63    15    64    1
    64    19    65    1
    65    19    66    1
    66    20    67    1
    67    20    68    1
    68    23    69    1
    69    24    70    1
    70    24    71    1
    71    26    72    1
    72    27    73    1
    73    31    74    1
    74    31    75    1
    75    31    76    1
    76    33    77    1
    77    35    78    1
    78    38    79    1
    79    38    80    1
    80    39    81    1
    81    39    82    1
    82    41    83    1
    83    41    84    1
    84    42    85    1
    85    42    86    1
    86    44    87    1
    87    44    88    1
    88    45    89    1
    89    46    90    1
    90    46    91    1
    91    10    11    1
    92    10     9    1
    93     3    47    1
    94     3     2    1
