@<TRIPOS>MOLECULE
*****
 42 44 0 0 0
SMALL
GASTEIGER

@<TRIPOS>ATOM
      1 O           3.7376    0.2575    2.0480 O.2     1  UNL1       -0.2741
      2 C           3.5840    1.3399    1.4912 C.2     1  UNL1        0.2304
      3 N           3.8224    2.4540    2.2588 N.am    1  UNL1       -0.3098
      4 C           3.7978    3.8663    1.9615 C.3     1  UNL1        0.0403
      5 C           2.7191    4.6261    2.6529 C.ar    1  UNL1        0.0111
      6 C           2.9313    5.0788    3.9422 C.ar    1  UNL1        0.1221
      7 O           4.1105    4.9106    4.6044 O.3     1  UNL1       -0.5064
      8 C           1.9224    5.7328    4.6204 C.ar    1  UNL1       -0.0116
      9 C           0.6830    5.9725    4.0137 C.ar    1  UNL1       -0.0061
     10 C           0.4734    5.5818    2.6931 C.ar    1  UNL1       -0.0529
     11 C           1.4893    4.9202    2.0163 C.ar    1  UNL1       -0.0530
     12 C          -0.3997    6.5354    4.8007 C.ar    1  UNL1        0.0418
     13 C          -1.6594    6.0180    5.0574 C.ar    1  UNL1        0.0531
     14 C          -2.2395    4.7547    4.5244 C.3     1  UNL1       -0.0212
     15 N          -2.4155    6.7598    5.9527 N.ar    1  UNL1       -0.2520
     16 C          -1.7339    7.8161    6.3356 C.ar    1  UNL1        0.0655
     17 S          -0.1891    8.0195    5.6352 S.2     1  UNL1       -0.0752
     18 C           3.0469    1.3976    0.0156 C.3     1  UNL1        0.0872
     19 N           2.3987    2.6581   -0.2860 N.3     1  UNL1       -0.3031
     20 C           3.2909    3.5053   -1.0560 C.3     1  UNL1        0.0227
     21 C           3.6159    2.4964   -2.1088 C.3     1  UNL1        0.0696
     22 O           4.6806    2.8978   -2.9442 O.3     1  UNL1       -0.3905
     23 C           3.9353    1.2551   -1.2317 C.3     1  UNL1       -0.0017
     24 H           4.0036    2.2039    3.2272 H       1  UNL1        0.1491
     25 H           4.8004    4.2670    2.1345 H       1  UNL1        0.0513
     26 H           3.6421    4.1060    0.9486 H       1  UNL1        0.0513
     27 H           4.7882    4.5398    4.0196 H       1  UNL1        0.2921
     28 H           2.1050    6.0237    5.6488 H       1  UNL1        0.0660
     29 H          -0.4792    5.7592    2.1933 H       1  UNL1        0.0624
     30 H           1.2834    4.6644    0.9817 H       1  UNL1        0.0622
     31 H          -2.4492    4.0580    5.3403 H       1  UNL1        0.0293
     32 H          -3.1685    4.9691    3.9884 H       1  UNL1        0.0293
     33 H          -1.5691    4.2437    3.8280 H       1  UNL1        0.0293
     34 H          -2.1197    8.5267    7.0526 H       1  UNL1        0.0907
     35 H           2.2894    0.6053   -0.0113 H       1  UNL1        0.0557
     36 H           1.6865    2.9729    0.3487 H       1  UNL1        0.1227
     37 H           4.2717    3.7888   -0.6311 H       1  UNL1        0.0449
     38 H           2.8131    4.4365   -1.3647 H       1  UNL1        0.0449
     39 H           2.7142    2.3633   -2.7183 H       1  UNL1        0.0606
     40 H           5.4980    2.9145   -2.4213 H       1  UNL1        0.2098
     41 H           3.6331    0.3777   -1.8135 H       1  UNL1        0.0310
     42 H           5.0015    1.1671   -1.0036 H       1  UNL1        0.0310
@<TRIPOS>BOND
     1     1     2    2
     2     2     3   am
     3     3     4    1
     4     4     5    1
     5     5     6   ar
     6     6     7    1
     7     6     8   ar
     8     8     9   ar
     9     9    10   ar
    10    10    11   ar
    11     5    11   ar
    12     9    12    1
    13    12    13   ar
    14    13    14    1
    15    13    15   ar
    16    15    16   ar
    17    16    17   ar
    18    12    17   ar
    19    18    19    1
    20    19    20    1
    21    20    21    1
    22    21    22    1
    23    21    23    1
    24    18    23    1
    25     3    24    1
    26     4    25    1
    27     4    26    1
    28     7    27    1
    29     8    28    1
    30    10    29    1
    31    11    30    1
    32    14    31    1
    33    14    32    1
    34    14    33    1
    35    16    34    1
    36    19    36    1
    37    20    37    1
    38    20    38    1
    39    21    39    1
    40    22    40    1
    41    23    41    1
    42    23    42    1
    43    18    35    1
    44    18     2    1
