@<TRIPOS>MOLECULE
*****
 108 114 0 0 0
SMALL
GASTEIGER

@<TRIPOS>ATOM
      1 O           1.5949    1.2968   -0.6544 O.2     1  UNL1       -0.2733
      2 C           2.4904    0.6087   -0.1875 C.2     1  UNL1        0.2391
      3 N           3.0908    0.8527    1.0525 N.am    1  UNL1       -0.3093
      4 C           4.5021    1.0326    1.2312 C.3     1  UNL1        0.0369
      5 C           5.0529    2.3429    0.8140 C.ar    1  UNL1       -0.0302
      6 C           6.3989    2.5341    0.4504 C.ar    1  UNL1       -0.0552
      7 C           6.8982    3.8423    0.3722 C.ar    1  UNL1       -0.0348
      8 C           6.0350    4.9403    0.4826 C.ar    1  UNL1        0.1085
      9 S           6.5814    6.6492   -0.0274 S.O2    1  UNL1        0.0724
     10 N           7.7780    7.3508    0.9895 N.pl3   1  UNL1       -0.2142
     11 C           9.1947    7.9301    0.6016 C.ar    1  UNL1        0.0719
     12 C          10.1363    7.1592    1.3829 C.ar    1  UNL1       -0.0373
     13 C          11.4411    7.4917    1.3108 C.ar    1  UNL1       -0.0592
     14 C          11.7679    8.1404    0.1537 C.ar    1  UNL1       -0.0511
     15 C          10.7879    8.3940   -0.9149 C.ar    1  UNL1        0.0198
     16 C           9.6065    9.0935   -0.4728 C.ar    1  UNL1        0.0706
     17 N          10.6176   10.3726   -1.1372 N.ar    1  UNL1       -0.3578
     18 C          11.7749    9.7855   -1.8949 C.ar    1  UNL1        0.0212
     19 C          10.7706    8.8956   -2.2548 C.ar    1  UNL1        0.0660
     20 CL          9.0392    9.6556   -3.0356 Cl      1  UNL1       -0.0814
     21 O           7.1301    6.4783   -1.3509 O.2     1  UNL1       -0.1500
     22 O           5.3815    7.4308    0.2168 O.2     1  UNL1       -0.1500
     23 C           4.6549    4.6902    0.6688 C.ar    1  UNL1       -0.0348
     24 C           4.1743    3.4031    0.8061 C.ar    1  UNL1       -0.0552
     25 C           2.8888   -0.6577   -0.8237 C.3     1  UNL1        0.1237
     26 O           3.1110   -1.9443   -0.4115 O.3     1  UNL1       -0.3683
     27 C           3.5618   -2.1922    0.9176 C.3     1  UNL1        0.0716
     28 C           5.0251   -2.3298    0.9096 C.3     1  UNL1        0.0711
     29 O           5.7394   -1.1700    0.4873 O.3     1  UNL1       -0.3762
     30 C           5.7460   -0.6669   -0.8895 C.3     1  UNL1        0.0605
     31 C           6.2473   -1.6055   -1.8767 C.3     1  UNL1        0.0224
     32 N           5.4491   -2.7923   -1.7490 N.3     1  UNL1       -0.2977
     33 C           5.9066   -4.1861   -1.7255 C.3     1  UNL1        0.0118
     34 C           6.1160   -4.7871   -3.1219 C.3     1  UNL1        0.0120
     35 C           4.5786   -2.5816   -2.8625 C.3     1  UNL1        0.0118
     36 C           5.3616   -2.9098   -4.1329 C.3     1  UNL1        0.0120
     37 N           5.2303   -4.3753   -4.2407 N.3     1  UNL1       -0.2955
     38 C           3.8201   -5.0146   -4.4473 C.3     1  UNL1        0.0311
     39 C           2.5766   -4.8324   -3.6531 C.ar    1  UNL1        0.0498
     40 C           2.1667   -5.7480   -2.6922 C.ar    1  UNL1        0.1285
     41 O           3.0588   -6.9815   -2.6154 O.3     1  UNL1       -0.4947
     42 C           4.0655   -7.5924   -3.4212 C.3     1  UNL1        0.0788
     43 C           1.4745   -5.3052   -1.3211 C.ar    1  UNL1       -0.0116
     44 C           1.9574   -4.1614   -0.9544 C.ar    1  UNL1       -0.0090
     45 C           1.3345   -3.8451    0.8752 C.ar    1  UNL1        0.0065
     46 C           2.2649   -3.9283   -0.1406 C.ar    1  UNL1       -0.0007
     47 C           0.5346   -3.3572   -0.6576 C.ar    1  UNL1        0.0653
     48 C          -0.4038   -4.7087   -1.3635 C.ar    1  UNL1        0.0405
     49 N           0.1221   -6.5173   -1.4234 N.ar    1  UNL1       -0.2625
     50 C           1.8191   -7.0759   -0.8544 C.ar    1  UNL1        0.0282
     51 C           3.1144   -5.8000   -0.3212 C.ar    1  UNL1       -0.0351
     52 C           0.7599   -2.6401    1.4409 C.ar    1  UNL1        0.0159
     53 N           0.5113   -1.4771    0.6664 N.ar    1  UNL1       -0.3171
     54 C           0.2183   -0.1453    1.1888 C.3     1  UNL1        0.0147
     55 C           0.3616   -1.7549   -0.6750 C.ar    1  UNL1        0.2603
     56 O           0.3189   -0.9817   -1.6208 O.2     1  UNL1       -0.2670
     57 C           1.9026   -3.3533   -2.3011 C.ar    1  UNL1       -0.0116
     58 C           1.9948   -3.6324   -3.6032 C.ar    1  UNL1        0.1285
     59 O           2.0992   -2.4352   -4.2028 O.3     1  UNL1       -0.4947
     60 C           3.0264   -2.3774   -5.2079 C.3     1  UNL1        0.0788
     61 H           2.5747    1.4973    1.6023 H       1  UNL1        0.1491
     62 H           4.8909    0.5615    2.1355 H       1  UNL1        0.0512
     63 H           4.8769    0.5199    0.4372 H       1  UNL1        0.0512
     64 H           7.0599    1.6830    0.2398 H       1  UNL1        0.0621
     65 H           7.9630    3.9926    0.2684 H       1  UNL1        0.0637
     66 H           7.6596    7.0581    1.9693 H       1  UNL1        0.1738
     67 H           9.8725    6.3278    2.0446 H       1  UNL1        0.0637
     68 H          12.2050    7.1764    2.0125 H       1  UNL1        0.0618
     69 H          12.8139    8.3873    0.0241 H       1  UNL1        0.0625
     70 H          10.2463   10.8828   -1.9784 H       1  UNL1        0.1654
     71 H          12.7411    9.7863   -1.3554 H       1  UNL1        0.0822
     72 H           3.8987    5.4620    0.7356 H       1  UNL1        0.0637
     73 H           3.1090    3.2159    0.9161 H       1  UNL1        0.0621
     74 H           2.8541   -0.5204   -1.9175 H       1  UNL1        0.0656
     75 H           3.8058   -0.4721   -0.4537 H       1  UNL1        0.0656
     76 H           2.9441   -1.6337    1.6056 H       1  UNL1        0.0583
     77 H           3.4034   -3.2207    1.3108 H       1  UNL1        0.0583
     78 H           5.2227   -2.6700    1.9346 H       1  UNL1        0.0583
     79 H           5.2892   -3.2161    0.3441 H       1  UNL1        0.0583
     80 H           4.8557   -0.4592   -1.4803 H       1  UNL1        0.0572
     81 H           5.8449    0.4320   -1.0109 H       1  UNL1        0.0572
     82 H           5.9664   -1.0177   -2.7872 H       1  UNL1        0.0449
     83 H           7.2923   -1.7059   -1.8144 H       1  UNL1        0.0449
     84 H           6.6173   -4.4594   -0.9408 H       1  UNL1        0.0439
     85 H           5.1808   -4.8134   -1.2571 H       1  UNL1        0.0439
     86 H           7.0873   -4.3558   -3.3684 H       1  UNL1        0.0439
     87 H           6.2961   -5.8473   -3.1102 H       1  UNL1        0.0439
     88 H           3.8696   -3.2747   -2.5337 H       1  UNL1        0.0439
     89 H           4.0498   -1.6271   -2.8780 H       1  UNL1        0.0439
     90 H           6.3787   -2.4911   -4.0670 H       1  UNL1        0.0439
     91 H           5.2393   -2.3764   -5.0848 H       1  UNL1        0.0439
     92 H           3.3447   -4.8575   -5.4185 H       1  UNL1        0.0478
     93 H           4.0051   -6.0221   -4.6609 H       1  UNL1        0.0478
     94 H           3.6381   -7.7042   -4.4113 H       1  UNL1        0.0660
     95 H           5.0145   -7.0690   -3.3164 H       1  UNL1        0.0660
     96 H           4.3415   -8.6017   -3.0967 H       1  UNL1        0.0660
     97 H           1.1378   -5.8641    0.0695 H       1  UNL1        0.0660
     98 H          -1.3664   -4.3535   -1.0782 H       1  UNL1        0.0837
     99 H           2.1265   -8.1335   -0.8878 H       1  UNL1        0.0830
    100 H           3.7873   -5.5232   -1.4342 H       1  UNL1        0.0639
    101 H           0.2498   -2.5454    2.3946 H       1  UNL1        0.0816
    102 H           1.1082    0.4007    1.4282 H       1  UNL1        0.0457
    103 H          -0.3070    0.4634    0.4425 H       1  UNL1        0.0457
    104 H          -0.1965   -0.1436    2.1846 H       1  UNL1        0.0457
    105 H           1.8903   -2.2994   -2.1707 H       1  UNL1        0.0660
    106 H           3.7640   -3.1302   -5.2505 H       1  UNL1        0.0660
    107 H           2.5750   -2.8624   -6.0320 H       1  UNL1        0.0660
    108 H           3.5927   -1.4410   -5.1137 H       1  UNL1        0.0660
@<TRIPOS>BOND
     1     1     2    2
     2     2     3   am
     3     3     4    1
     4     4     5    1
     5     5     6   ar
     6     6     7   ar
     7     7     8   ar
     8     8     9    1
     9     9    10    1
    10    10    11    1
    11    11    12   ar
    12    12    13   ar
    13    13    14   ar
    14    14    15   ar
    15    15    16   ar
    16    11    16   ar
    17    16    17   ar
    18    17    18   ar
    19    18    19   ar
    20    15    19   ar
    21    19    20    1
    22     9    21    2
    23     9    22    2
    24     8    23   ar
    25    23    24   ar
    26     5    24   ar
    27     2    25    1
    28    25    26    1
    29    26    27    1
    30    27    28    1
    31    28    29    1
    32    29    30    1
    33    30    31    1
    34    31    32    1
    35    32    33    1
    36    33    34    1
    37    32    35    1
    38    35    36    1
    39    36    37    1
    40    34    37    1
    41    37    38    1
    42    38    39    1
    43    39    40   ar
    44    40    41    1
    45    41    42    1
    46    40    43   ar
    47    43    44   ar
    48    44    45    1
    49    45    46   ar
    50    46    47   ar
    51    47    48   ar
    52    48    49   ar
    53    49    50   ar
    54    50    51   ar
    55    46    51   ar
    56    45    52   ar
    57    52    53   ar
    58    53    54    1
    59    53    55   ar
    60    47    55   ar
    61    55    56    2
    62    44    57   ar
    63    57    58   ar
    64    39    58   ar
    65    58    59    1
    66    59    60    1
    67     3    61    1
    68     4    62    1
    69     4    63    1
    70     6    64    1
    71     7    65    1
    72    10    66    1
    73    12    67    1
    74    13    68    1
    75    14    69    1
    76    17    70    1
    77    18    71    1
    78    23    72    1
    79    24    73    1
    80    25    74    1
    81    25    75    1
    82    27    76    1
    83    27    77    1
    84    28    78    1
    85    28    79    1
    86    30    80    1
    87    30    81    1
    88    31    82    1
    89    31    83    1
    90    33    84    1
    91    33    85    1
    92    34    86    1
    93    34    87    1
    94    35    88    1
    95    35    89    1
    96    36    90    1
    97    36    91    1
    98    38    92    1
    99    38    93    1
   100    42    94    1
   101    42    95    1
   102    42    96    1
   103    43    97    1
   104    48    98    1
   105    50    99    1
   106    51   100    1
   107    52   101    1
   108    54   102    1
   109    54   103    1
   110    54   104    1
   111    57   105    1
   112    60   106    1
   113    60   107    1
   114    60   108    1
