@<TRIPOS>MOLECULE
*****
 92 95 0 0 0
SMALL
GASTEIGER

@<TRIPOS>ATOM
      1 C          -2.5815   -7.5281    5.7680 C.3     1  UNL1       -0.0212
      2 C          -1.4503   -8.3428    6.2988 C.ar    1  UNL1        0.0531
      3 C          -0.1961   -8.6765    5.7830 C.ar    1  UNL1        0.0418
      4 S           0.6520   -9.6943    6.8785 S.2     1  UNL1       -0.0752
      5 C          -0.6501   -9.5673    7.9581 C.ar    1  UNL1        0.0655
      6 N          -1.6790   -8.8588    7.5670 N.ar    1  UNL1       -0.2520
      7 C           0.5394   -8.3411    4.5796 C.ar    1  UNL1       -0.0061
      8 C           0.5755   -9.2263    3.5221 C.ar    1  UNL1       -0.0529
      9 C           1.1102   -8.7878    2.3218 C.ar    1  UNL1       -0.0530
     10 C           1.7455   -7.5275    2.1277 C.ar    1  UNL1        0.0113
     11 C           2.1492   -7.1624    0.6954 C.3     1  UNL1        0.0403
     12 N           3.4114   -7.6579    0.1797 N.am    1  UNL1       -0.3095
     13 C           3.4664   -8.0245   -1.1581 C.2     1  UNL1        0.2339
     14 C           4.5025   -9.0756   -1.5604 C.3     1  UNL1        0.1047
     15 C           5.8525   -8.5067   -1.9530 C.3     1  UNL1        0.0018
     16 C           6.2909   -9.4963   -3.0270 C.3     1  UNL1        0.0731
     17 O           6.8404  -10.6657   -2.4022 O.3     1  UNL1       -0.3902
     18 C           4.9856   -9.8268   -3.7679 C.3     1  UNL1        0.0416
     19 N           3.9788   -9.8209   -2.7192 N.am    1  UNL1       -0.2858
     20 C           2.7085  -10.3882   -2.9088 C.2     1  UNL1        0.2371
     21 C           1.6692  -10.5155   -1.7086 C.3     1  UNL1        0.1045
     22 C           2.2056  -11.4074   -0.5219 C.3     1  UNL1       -0.0108
     23 C           3.2075  -12.4392   -1.0191 C.3     1  UNL1       -0.0579
     24 C           2.8974  -10.5985    0.5658 C.3     1  UNL1       -0.0579
     25 C           1.0379  -12.0878    0.2201 C.3     1  UNL1       -0.0579
     26 N           0.3432  -11.0114   -2.1930 N.am    1  UNL1       -0.3009
     27 C          -0.7933  -10.2085   -2.1269 C.2     1  UNL1        0.2508
     28 C          -2.1370  -10.7890   -2.4749 C.3     1  UNL1        0.1868
     29 F          -3.1911  -10.2772   -1.7056 F       1  UNL1       -0.2320
     30 C          -2.4725  -11.0390   -3.9269 C.3     1  UNL1       -0.0068
     31 C          -2.4203  -12.1844   -2.9582 C.3     1  UNL1       -0.0068
     32 O          -0.7559   -9.0570   -1.7551 O.2     1  UNL1       -0.2723
     33 O           2.4216  -10.8867   -4.0067 O.2     1  UNL1       -0.2735
     34 O           2.6317   -7.6541   -1.9837 O.2     1  UNL1       -0.2738
     35 C           1.6825   -6.6290    3.2320 C.ar    1  UNL1        0.1259
     36 O           1.7818   -5.2616    3.0167 O.3     1  UNL1       -0.4893
     37 C           1.0076   -4.2733    3.7964 C.3     1  UNL1        0.1128
     38 C          -0.5634   -4.1881    4.0089 C.3     1  UNL1        0.0817
     39 O          -1.3404   -5.3602    4.1710 O.3     1  UNL1       -0.3764
     40 C          -1.2494   -6.2391    3.0735 C.3     1  UNL1        0.0478
     41 C          -2.0103   -6.0169    1.8212 C.3     1  UNL1       -0.0290
     42 C          -1.5948   -4.7348    1.0705 C.3     1  UNL1       -0.0409
     43 C          -0.1284   -4.5906    0.6366 C.3     1  UNL1        0.0448
     44 C           0.0597   -5.5504   -0.4948 C.2     1  UNL1        0.3047
     45 O           0.9620   -5.1665   -1.4160 O.3     1  UNL1       -0.4806
     46 O          -0.4706   -6.6294   -0.5090 O.2     1  UNL1       -0.2510
     47 C           1.1241   -7.0723    4.4451 C.ar    1  UNL1       -0.0113
     48 H          -3.5219   -8.0847    5.8001 H       1  UNL1        0.0293
     49 H          -2.6943   -6.5967    6.3330 H       1  UNL1        0.0293
     50 H          -2.5133   -7.2690    4.7325 H       1  UNL1        0.0293
     51 H          -0.6186  -10.0537    8.9176 H       1  UNL1        0.0907
     52 H           0.1062  -10.2079    3.5646 H       1  UNL1        0.0624
     53 H           0.8699   -9.4552    1.5027 H       1  UNL1        0.0622
     54 H           1.3946   -7.5974    0.0305 H       1  UNL1        0.0513
     55 H           2.1990   -6.0869    0.5585 H       1  UNL1        0.0513
     56 H           4.2456   -7.4583    0.7057 H       1  UNL1        0.1491
     57 H           4.8108   -9.8112   -0.8392 H       1  UNL1        0.0597
     58 H           6.5280   -8.5056   -1.0851 H       1  UNL1        0.0313
     59 H           5.7509   -7.4846   -2.3207 H       1  UNL1        0.0313
     60 H           7.0656   -9.0777   -3.6700 H       1  UNL1        0.0610
     61 H           6.1106  -11.2042   -2.0459 H       1  UNL1        0.2098
     62 H           4.7194   -9.0284   -4.4653 H       1  UNL1        0.0490
     63 H           5.0078  -10.7949   -4.2751 H       1  UNL1        0.0490
     64 H           1.4446   -9.5260   -1.3193 H       1  UNL1        0.0600
     65 H           4.0810  -11.9633   -1.4712 H       1  UNL1        0.0236
     66 H           3.5976  -13.0330   -0.1910 H       1  UNL1        0.0236
     67 H           2.7525  -13.0861   -1.7704 H       1  UNL1        0.0236
     68 H           2.3471   -9.6940    0.6415 H       1  UNL1        0.0236
     69 H           3.0115  -11.0979    1.5267 H       1  UNL1        0.0236
     70 H           3.8840  -10.2347    0.4113 H       1  UNL1        0.0236
     71 H           0.3141  -11.3465    0.5823 H       1  UNL1        0.0236
     72 H           0.5042  -12.7933   -0.4182 H       1  UNL1        0.0236
     73 H           1.4033  -12.6370    1.0938 H       1  UNL1        0.0236
     74 H           0.2932  -11.9303   -2.6019 H       1  UNL1        0.1496
     75 H          -3.4410  -10.7095   -4.2853 H       1  UNL1        0.0302
     76 H          -1.6774  -10.9404   -4.6562 H       1  UNL1        0.0302
     77 H          -1.6249  -12.9066   -3.0438 H       1  UNL1        0.0302
     78 H          -3.3686  -12.6112   -2.6419 H       1  UNL1        0.0302
     79 H           1.4921   -4.1638    4.7655 H       1  UNL1        0.0720
     80 H           1.2050   -3.3347    3.2544 H       1  UNL1        0.0720
     81 H          -0.7472   -3.5655    4.8970 H       1  UNL1        0.0594
     82 H          -1.0476   -3.5831    3.2488 H       1  UNL1        0.0594
     83 H          -0.2702   -6.1733    2.7052 H       1  UNL1        0.0560
     84 H          -1.3787   -7.2779    3.3704 H       1  UNL1        0.0560
     85 H          -1.7778   -6.9206    1.2420 H       1  UNL1        0.0287
     86 H          -3.0779   -6.0528    2.0232 H       1  UNL1        0.0287
     87 H          -2.1903   -4.7052    0.1623 H       1  UNL1        0.0271
     88 H          -1.8902   -3.8606    1.6422 H       1  UNL1        0.0271
     89 H           0.1421   -3.5656    0.3663 H       1  UNL1        0.0377
     90 H           0.5877   -4.8504    1.3917 H       1  UNL1        0.0377
     91 H           1.3902   -4.3129   -1.2622 H       1  UNL1        0.2951
     92 H           0.8904   -6.3498    5.2187 H       1  UNL1        0.0660
@<TRIPOS>BOND
     1     1     2    1
     2     2     3   ar
     3     3     4   ar
     4     4     5   ar
     5     5     6   ar
     6     2     6   ar
     7     3     7    1
     8     7     8   ar
     9     8     9   ar
    10     9    10   ar
    11    10    11    1
    12    11    12    1
    13    12    13   am
    14    14    15    1
    15    15    16    1
    16    16    17    1
    17    16    18    1
    18    18    19    1
    19    14    19    1
    20    19    20   am
    21    22    23    1
    22    22    24    1
    23    22    25    1
    24    21    26    1
    25    26    27   am
    26    27    28    1
    27    28    29    1
    28    28    30    1
    29    30    31    1
    30    28    31    1
    31    27    32    2
    32    20    33    2
    33    13    34    2
    34    10    35   ar
    35    35    36    1
    36    36    37    1
    37    37    38    1
    38    38    39    1
    39    39    40    1
    40    40    41    1
    41    41    42    1
    42    42    43    1
    43    43    44    1
    44    44    45    1
    45    44    46    2
    46    35    47   ar
    47     7    47   ar
    48     1    48    1
    49     1    49    1
    50     1    50    1
    51     5    51    1
    52     8    52    1
    53     9    53    1
    54    11    54    1
    55    11    55    1
    56    12    56    1
    57    15    58    1
    58    15    59    1
    59    16    60    1
    60    17    61    1
    61    18    62    1
    62    18    63    1
    63    21    64    1
    64    23    65    1
    65    23    66    1
    66    23    67    1
    67    24    68    1
    68    24    69    1
    69    24    70    1
    70    25    71    1
    71    25    72    1
    72    25    73    1
    73    26    74    1
    74    30    75    1
    75    30    76    1
    76    31    77    1
    77    31    78    1
    78    37    79    1
    79    37    80    1
    80    38    81    1
    81    38    82    1
    82    40    83    1
    83    40    84    1
    84    41    85    1
    85    41    86    1
    86    42    87    1
    87    42    88    1
    88    43    89    1
    89    43    90    1
    90    45    91    1
    91    47    92    1
    92    21    22    1
    93    21    20    1
    94    14    57    1
    95    14    13    1
