@<TRIPOS>MOLECULE
*****
 75 78 0 0 0
SMALL
GASTEIGER

@<TRIPOS>ATOM
      1 C           1.1356    0.0221   -0.0490 C.3     1  UNL1        0.0788
      2 O           0.6863    0.7632   -1.1687 O.3     1  UNL1       -0.4947
      3 C           1.1723    2.0199   -1.4025 C.ar    1  UNL1        0.1285
      4 C           2.3787    2.4979   -0.9534 C.ar    1  UNL1       -0.0116
      5 C           2.7072    3.8466   -1.1343 C.ar    1  UNL1       -0.0090
      6 C           4.0146    4.3390   -0.7839 C.ar    1  UNL1        0.0065
      7 C           4.9518    3.8328   -1.5931 C.ar    1  UNL1        0.0159
      8 N           6.2698    4.1637   -1.4810 N.ar    1  UNL1       -0.3171
      9 C           7.2181    3.5442   -2.3734 C.3     1  UNL1        0.0147
     10 C           6.7443    5.0681   -0.5300 C.ar    1  UNL1        0.2603
     11 C           5.7256    5.6522    0.3658 C.ar    1  UNL1        0.0653
     12 C           4.3889    5.3088    0.2328 C.ar    1  UNL1       -0.0007
     13 C           3.4624    5.8202    1.1302 C.ar    1  UNL1       -0.0351
     14 C           3.9530    6.4056    2.2724 C.ar    1  UNL1        0.0282
     15 N           5.2292    6.8223    2.3969 N.ar    1  UNL1       -0.2625
     16 C           6.0779    6.4989    1.3910 C.ar    1  UNL1        0.0405
     17 O           7.9192    5.3633   -0.3949 O.2     1  UNL1       -0.2670
     18 C           1.9051    4.7365   -1.8285 C.ar    1  UNL1       -0.0116
     19 C           0.7136    4.2847   -2.3859 C.ar    1  UNL1        0.1285
     20 O          -0.1729    5.2493   -2.8740 O.3     1  UNL1       -0.4947
     21 C           0.0876    6.6826   -2.7499 C.3     1  UNL1        0.0788
     22 C           0.3021    2.9009   -2.0855 C.ar    1  UNL1        0.0498
     23 C          -1.1389    2.4957   -1.7865 C.3     1  UNL1        0.0311
     24 N          -1.3577    3.1658   -0.5392 N.3     1  UNL1       -0.2955
     25 C          -1.1272    2.5089    0.7180 C.3     1  UNL1        0.0120
     26 C          -0.0253    3.5313    1.4640 C.3     1  UNL1        0.0118
     27 N           0.0488    5.0964    1.3881 N.3     1  UNL1       -0.2977
     28 C          -0.6135    6.0070    2.3694 C.3     1  UNL1        0.0224
     29 C          -2.1466    6.0765    2.5209 C.3     1  UNL1        0.0605
     30 O          -3.1009    5.0197    2.6613 O.3     1  UNL1       -0.3762
     31 C          -2.9180    4.0628    1.6326 C.3     1  UNL1        0.0711
     32 C          -3.6016    4.2007   -0.0617 C.3     1  UNL1        0.0717
     33 O          -3.5354    5.6188   -0.6844 O.3     1  UNL1       -0.3664
     34 C          -4.0151    6.7632    0.1749 C.3     1  UNL1        0.1444
     35 C          -5.1876    5.9107    0.1526 C.2     1  UNL1        0.3308
     36 O          -5.4124    5.1583    1.2818 O.3     1  UNL1       -0.4790
     37 O          -5.8617    5.6440   -0.9283 O.2     1  UNL1       -0.2484
     38 C          -0.2818    5.5109    0.0435 C.3     1  UNL1        0.0118
     39 C          -1.2669    4.6482   -0.6396 C.3     1  UNL1        0.0120
     40 H           0.7375   -0.9882   -0.1787 H       1  UNL1        0.0660
     41 H           0.7423    0.4074    0.8981 H       1  UNL1        0.0660
     42 H           2.2201   -0.0382   -0.0178 H       1  UNL1        0.0660
     43 H           3.0775    1.8543   -0.4411 H       1  UNL1        0.0660
     44 H           4.6788    3.1281   -2.3786 H       1  UNL1        0.0816
     45 H           7.7266    4.3345   -2.9282 H       1  UNL1        0.0457
     46 H           7.9415    2.9870   -1.7740 H       1  UNL1        0.0457
     47 H           6.7198    2.8644   -3.0722 H       1  UNL1        0.0457
     48 H           2.4000    5.6894    1.0012 H       1  UNL1        0.0639
     49 H           3.3213    6.4911    3.1514 H       1  UNL1        0.0830
     50 H           7.0778    6.9127    1.4517 H       1  UNL1        0.0837
     51 H           2.0660    5.8044   -1.6043 H       1  UNL1        0.0660
     52 H           0.3275    7.1141   -1.7614 H       1  UNL1        0.0660
     53 H           0.9319    6.9216   -3.3834 H       1  UNL1        0.0660
     54 H          -0.8130    7.2373   -3.0516 H       1  UNL1        0.0660
     55 H          -1.8468    2.7731   -2.5723 H       1  UNL1        0.0478
     56 H          -1.3895    1.4278   -1.6004 H       1  UNL1        0.0478
     57 H          -2.2049    2.3039    0.9174 H       1  UNL1        0.0439
     58 H          -1.0056    1.4403    0.9956 H       1  UNL1        0.0439
     59 H           0.8455    3.2361    0.8770 H       1  UNL1        0.0439
     60 H           0.1937    3.2820    2.4923 H       1  UNL1        0.0439
     61 H          -0.1189    5.9329    3.3242 H       1  UNL1        0.0449
     62 H          -0.4172    7.0484    1.9884 H       1  UNL1        0.0449
     63 H          -2.6089    6.9222    3.0255 H       1  UNL1        0.0572
     64 H          -2.2139    6.3430    1.4969 H       1  UNL1        0.0572
     65 H          -1.8936    4.2464    1.5306 H       1  UNL1        0.0583
     66 H          -2.7979    3.1306    2.2144 H       1  UNL1        0.0583
     67 H          -3.1724    3.7451   -0.9811 H       1  UNL1        0.0583
     68 H          -4.4734    3.5826   -0.2647 H       1  UNL1        0.0583
     69 H          -3.8020    6.5755    1.1902 H       1  UNL1        0.0676
     70 H          -3.0556    7.3016    0.0085 H       1  UNL1        0.0676
     71 H          -4.7126    5.1653    2.0008 H       1  UNL1        0.2951
     72 H           0.5786    5.2682   -0.4468 H       1  UNL1        0.0439
     73 H          -0.5052    6.5806   -0.1469 H       1  UNL1        0.0439
     74 H          -1.6909    5.0056   -1.5874 H       1  UNL1        0.0439
     75 H          -1.9150    5.1247    0.0341 H       1  UNL1        0.0439
@<TRIPOS>BOND
     1     1     2    1
     2     2     3    1
     3     3     4   ar
     4     4     5   ar
     5     5     6    1
     6     6     7   ar
     7     7     8   ar
     8     8     9    1
     9     8    10   ar
    10    10    11   ar
    11    11    12   ar
    12     6    12   ar
    13    12    13   ar
    14    13    14   ar
    15    14    15   ar
    16    15    16   ar
    17    11    16   ar
    18    10    17    2
    19     5    18   ar
    20    18    19   ar
    21    19    20    1
    22    20    21    1
    23     3    22   ar
    24    19    22   ar
    25    22    23    1
    26    23    24    1
    27    24    25    1
    28    25    26    1
    29    26    27    1
    30    27    28    1
    31    28    29    1
    32    29    30    1
    33    30    31    1
    34    31    32    1
    35    32    33    1
    36    33    34    1
    37    34    35    1
    38    35    36    1
    39    35    37    2
    40    27    38    1
    41    38    39    1
    42    24    39    1
    43     1    40    1
    44     1    41    1
    45     1    42    1
    46     4    43    1
    47     7    44    1
    48     9    45    1
    49     9    46    1
    50     9    47    1
    51    13    48    1
    52    14    49    1
    53    16    50    1
    54    18    51    1
    55    21    52    1
    56    21    53    1
    57    21    54    1
    58    23    55    1
    59    23    56    1
    60    25    57    1
    61    25    58    1
    62    26    59    1
    63    26    60    1
    64    28    61    1
    65    28    62    1
    66    29    63    1
    67    29    64    1
    68    31    65    1
    69    31    66    1
    70    32    67    1
    71    32    68    1
    72    34    69    1
    73    34    70    1
    74    36    71    1
    75    38    72    1
    76    38    73    1
    77    39    74    1
    78    39    75    1
