@<TRIPOS>MOLECULE
*****
 150 157 0 0 0
SMALL
GASTEIGER

@<TRIPOS>ATOM
      1 C           6.1238   11.1735    0.6052 C.3     1  UNL1        0.0788
      2 O           6.5758    9.8469    0.5221 O.3     1  UNL1       -0.4948
      3 C           7.0371    9.3994   -0.6701 C.ar    1  UNL1        0.1253
      4 C           7.5275   10.1316   -1.6990 C.ar    1  UNL1       -0.0084
      5 C           7.8319    9.5837   -2.9806 C.ar    1  UNL1        0.0292
      6 C           8.4703   10.5144   -3.8342 C.ar    1  UNL1        0.0099
      7 C           7.9155   11.2103   -4.9710 C.ar    1  UNL1       -0.0006
      8 C           8.8183   11.7789   -5.8495 C.ar    1  UNL1        0.0653
      9 C           8.3310   12.2141   -7.0595 C.ar    1  UNL1        0.0405
     10 N           7.0060   12.2461   -7.3690 N.ar    1  UNL1       -0.2625
     11 C           6.1421   11.7482   -6.4607 C.ar    1  UNL1        0.0282
     12 C           6.5599   11.1321   -5.3080 C.ar    1  UNL1       -0.0351
     13 C           9.7631   10.5777   -3.5154 C.ar    1  UNL1        0.0160
     14 N          10.6345   11.2692   -4.2900 N.ar    1  UNL1       -0.3171
     15 C          11.9899   11.4074   -3.8276 C.3     1  UNL1        0.0147
     16 C          10.2537   11.8540   -5.4970 C.ar    1  UNL1        0.2603
     17 O          11.0303   12.4382   -6.2427 O.2     1  UNL1       -0.2670
     18 C           7.7580    8.2474   -3.3403 C.ar    1  UNL1        0.1284
     19 O           7.5240    7.7341   -4.6311 O.3     1  UNL1       -0.4945
     20 C           7.9665    8.4054   -5.8193 C.3     1  UNL1        0.0788
     21 C           7.4210    7.4466   -2.2304 C.ar    1  UNL1       -0.0115
     22 C           6.9697    8.0490   -0.8697 C.ar    1  UNL1        0.0117
     23 C           5.8248    7.5574    0.0902 C.3     1  UNL1        0.0277
     24 N           4.6393    7.8621   -0.6360 N.3     1  UNL1       -0.2956
     25 C           3.7878    9.1461   -0.8016 C.3     1  UNL1        0.0120
     26 C           3.9772    9.8849   -2.4811 C.3     1  UNL1        0.0118
     27 N           4.2946    8.9471   -3.8879 N.3     1  UNL1       -0.2977
     28 C           3.5251    8.3447   -5.1091 C.3     1  UNL1        0.0224
     29 C           2.4044    7.3628   -4.9180 C.3     1  UNL1        0.0605
     30 O           1.6970    7.7860   -3.8222 O.3     1  UNL1       -0.3762
     31 C           1.9714    8.3178   -2.6227 C.3     1  UNL1        0.0711
     32 C           2.7602    7.2123   -2.2850 C.3     1  UNL1        0.0711
     33 O           3.4151    6.4089   -3.2973 O.3     1  UNL1       -0.3752
     34 C           3.2503    5.0828   -3.5886 C.3     1  UNL1        0.0711
     35 C           3.2264    4.8462   -2.1404 C.3     1  UNL1        0.0711
     36 O           2.5311    5.0241   -0.8734 O.3     1  UNL1       -0.3742
     37 C           3.0350    5.4756    0.3093 C.3     1  UNL1        0.0818
     38 C           3.8862    4.3463    0.6778 C.3     1  UNL1        0.1128
     39 O           4.0209    3.3381   -0.4013 O.3     1  UNL1       -0.4893
     40 C           2.8794    2.7140   -1.2468 C.ar    1  UNL1        0.1259
     41 C           3.6336    1.9603   -2.1720 C.ar    1  UNL1       -0.0113
     42 C           2.9914    1.5848   -3.3611 C.ar    1  UNL1       -0.0061
     43 C           3.6126    0.6301   -4.2185 C.ar    1  UNL1        0.0418
     44 C           3.8451    0.6791   -5.5746 C.ar    1  UNL1        0.0531
     45 C           3.6247    1.8503   -6.4737 C.3     1  UNL1       -0.0212
     46 N           4.2939   -0.5237   -6.0884 N.ar    1  UNL1       -0.2520
     47 C           4.3748   -1.4109   -5.1178 C.ar    1  UNL1        0.0655
     48 S           3.9163   -0.9122   -3.5606 S.2     1  UNL1       -0.0752
     49 C           1.6957    1.9838   -3.7743 C.ar    1  UNL1       -0.0529
     50 C           0.9173    2.8270   -3.0319 C.ar    1  UNL1       -0.0530
     51 C           1.3656    3.2193   -1.7414 C.ar    1  UNL1        0.0113
     52 C           0.5901    4.8480   -1.7467 C.3     1  UNL1        0.0403
     53 N           0.6423    5.7106   -3.2659 N.am    1  UNL1       -0.3095
     54 C           0.0652    6.9640   -3.3103 C.2     1  UNL1        0.2339
     55 C          -0.1892    8.4134   -4.5187 C.3     1  UNL1        0.1047
     56 C           1.0140    9.2400   -5.1865 C.3     1  UNL1        0.0018
     57 C           0.9229   10.6223   -5.6119 C.3     1  UNL1        0.0731
     58 O           0.5968   10.4881   -6.9706 O.3     1  UNL1       -0.3902
     59 C          -0.1275   10.9611   -4.5886 C.3     1  UNL1        0.0416
     60 N          -0.9253    9.6853   -4.3002 N.am    1  UNL1       -0.2858
     61 C          -2.1446    9.7448   -3.6780 C.2     1  UNL1        0.2371
     62 C          -2.8253    8.4176   -3.2598 C.3     1  UNL1        0.1045
     63 C          -2.0075    7.4996   -2.3841 C.3     1  UNL1       -0.0108
     64 C          -1.8285    5.9612   -3.4648 C.3     1  UNL1       -0.0579
     65 C          -0.8616    8.7618   -1.6027 C.3     1  UNL1       -0.0579
     66 C          -2.4048    6.8447   -1.0693 C.3     1  UNL1       -0.0579
     67 N          -3.2125    7.7520   -4.4891 N.am    1  UNL1       -0.3009
     68 C          -4.3768    7.0403   -4.4680 C.2     1  UNL1        0.2508
     69 C          -4.7103    6.3079   -5.7088 C.3     1  UNL1        0.1868
     70 F          -5.7288    6.9330   -6.4193 F       1  UNL1       -0.2320
     71 C          -3.6752    5.5963   -6.5598 C.3     1  UNL1       -0.0068
     72 C          -4.7099    4.8019   -5.8131 C.3     1  UNL1       -0.0068
     73 O          -5.1470    7.0658   -3.5089 O.2     1  UNL1       -0.2723
     74 O          -2.6323   10.8382   -3.3867 O.2     1  UNL1       -0.2735
     75 O           0.0286    7.0130   -1.9902 O.2     1  UNL1       -0.2738
     76 C           5.0923    7.8162   -3.3763 C.3     1  UNL1        0.0118
     77 C           5.0560    7.0248   -1.8483 C.3     1  UNL1        0.0120
     78 H           5.9905   11.3719    1.6689 H       1  UNL1        0.0660
     79 H           5.1628   11.3193    0.1001 H       1  UNL1        0.0660
     80 H           6.8828   11.8444    0.2192 H       1  UNL1        0.0660
     81 H           7.7479   11.1680   -1.5148 H       1  UNL1        0.0661
     82 H           9.0090   12.5569   -7.8328 H       1  UNL1        0.0837
     83 H           5.0836   11.8126   -6.6891 H       1  UNL1        0.0830
     84 H           5.8897   10.4245   -4.8284 H       1  UNL1        0.0639
     85 H          10.1590   10.0526   -2.6403 H       1  UNL1        0.0816
     86 H          12.6577   10.9824   -4.5765 H       1  UNL1        0.0457
     87 H          12.1796   12.4750   -3.7070 H       1  UNL1        0.0457
     88 H          12.1373   10.9024   -2.8657 H       1  UNL1        0.0457
     89 H           7.3495    9.2386   -6.1336 H       1  UNL1        0.0660
     90 H           9.0045    8.6859   -5.6749 H       1  UNL1        0.0660
     91 H           7.8749    7.8027   -6.7322 H       1  UNL1        0.0660
     92 H           7.0992    6.4579   -2.6169 H       1  UNL1        0.0658
     93 H           5.9099    6.4706    0.2146 H       1  UNL1        0.0477
     94 H           5.6307    7.9268    1.1033 H       1  UNL1        0.0477
     95 H           2.7877    8.6505   -0.5817 H       1  UNL1        0.0439
     96 H           3.3002    9.8852   -0.0803 H       1  UNL1        0.0439
     97 H           4.8639   10.4820   -2.3255 H       1  UNL1        0.0439
     98 H           3.1790   10.6407   -2.7124 H       1  UNL1        0.0439
     99 H           3.2555    9.1284   -5.8061 H       1  UNL1        0.0449
    100 H           4.1214    7.6739   -5.7542 H       1  UNL1        0.0449
    101 H           1.5697    6.9743   -5.5302 H       1  UNL1        0.0572
    102 H           2.8009    6.3919   -5.0131 H       1  UNL1        0.0572
    103 H           2.3333    9.2109   -2.9427 H       1  UNL1        0.0583
    104 H           1.4380    8.8643   -1.8322 H       1  UNL1        0.0583
    105 H           3.4935    7.9090   -2.2298 H       1  UNL1        0.0583
    106 H           2.5517    6.9003   -1.3050 H       1  UNL1        0.0583
    107 H           2.3720    4.8206   -4.2644 H       1  UNL1        0.0583
    108 H           4.0515    4.7725   -4.2729 H       1  UNL1        0.0583
    109 H           2.3716    4.4835   -2.5871 H       1  UNL1        0.0583
    110 H           4.1701    4.4355   -2.0115 H       1  UNL1        0.0583
    111 H           3.6597    6.2378    0.0039 H       1  UNL1        0.0594
    112 H           2.3884    6.1161    0.9579 H       1  UNL1        0.0594
    113 H           4.8397    4.8412    0.9799 H       1  UNL1        0.0720
    114 H           3.4630    3.7748    1.4682 H       1  UNL1        0.0720
    115 H           4.7093    1.7530   -2.0367 H       1  UNL1        0.0660
    116 H           4.5636    2.1362   -6.9517 H       1  UNL1        0.0293
    117 H           2.8787    1.6130   -7.2379 H       1  UNL1        0.0293
    118 H           3.2615    2.7379   -5.9394 H       1  UNL1        0.0293
    119 H           4.7090   -2.4229   -5.2596 H       1  UNL1        0.0907
    120 H           1.2868    1.6747   -4.7352 H       1  UNL1        0.0624
    121 H           0.2480    3.4647   -3.6330 H       1  UNL1        0.0622
    122 H          -0.2264    4.9024   -1.0209 H       1  UNL1        0.0513
    123 H           1.0326    5.6917   -1.2059 H       1  UNL1        0.0513
    124 H           1.5586    6.1143   -3.2684 H       1  UNL1        0.1491
    125 H          -0.6071    7.9059   -5.3861 H       1  UNL1        0.0597
    126 H           1.3463    8.6779   -6.0514 H       1  UNL1        0.0313
    127 H           1.7362    9.5638   -4.4467 H       1  UNL1        0.0313
    128 H           1.9301   11.1031   -5.4952 H       1  UNL1        0.0610
    129 H           0.0218    9.7017   -7.0116 H       1  UNL1        0.2098
    130 H           0.3674   11.2763   -3.6465 H       1  UNL1        0.0490
    131 H          -0.7416   11.7483   -4.9972 H       1  UNL1        0.0490
    132 H          -3.6750    8.6625   -2.6374 H       1  UNL1        0.0600
    133 H          -1.3496    6.1385   -4.4800 H       1  UNL1        0.0236
    134 H          -1.2355    5.1431   -3.0446 H       1  UNL1        0.0236
    135 H          -2.6985    5.3626   -3.6711 H       1  UNL1        0.0236
    136 H          -1.2697    9.5918   -1.0476 H       1  UNL1        0.0236
    137 H          -0.1398    8.3682   -0.8349 H       1  UNL1        0.0236
    138 H          -0.2149    9.2292   -2.3481 H       1  UNL1        0.0236
    139 H          -2.6206    7.6156   -0.3362 H       1  UNL1        0.0236
    140 H          -3.1640    6.0915   -1.2252 H       1  UNL1        0.0236
    141 H          -1.5633    6.3040   -0.6028 H       1  UNL1        0.0236
    142 H          -2.5189    7.4967   -5.1847 H       1  UNL1        0.1496
    143 H          -3.7642    5.6658   -7.6385 H       1  UNL1        0.0302
    144 H          -2.6450    5.5240   -6.2380 H       1  UNL1        0.0302
    145 H          -4.3971    4.1893   -4.9764 H       1  UNL1        0.0302
    146 H          -5.5229    4.3577   -6.3782 H       1  UNL1        0.0302
    147 H           5.7738    8.5713   -3.1630 H       1  UNL1        0.0439
    148 H           5.3709    7.1221   -4.1925 H       1  UNL1        0.0439
    149 H           5.6828    6.0845   -1.7751 H       1  UNL1        0.0439
    150 H           4.3925    6.2527   -1.6158 H       1  UNL1        0.0439
@<TRIPOS>BOND
     1     1     2    1
     2     2     3    1
     3     3     4   ar
     4     4     5   ar
     5     5     6    1
     6     6     7   ar
     7     7     8   ar
     8     8     9   ar
     9     9    10   ar
    10    10    11   ar
    11    11    12   ar
    12     7    12   ar
    13     6    13   ar
    14    13    14   ar
    15    14    15    1
    16    14    16   ar
    17     8    16   ar
    18    16    17    2
    19     5    18   ar
    20    18    19    1
    21    19    20    1
    22    18    21   ar
    23     3    22   ar
    24    21    22   ar
    25    22    23    1
    26    23    24    1
    27    24    25    1
    28    25    26    1
    29    26    27    1
    30    27    28    1
    31    28    29    1
    32    29    30    1
    33    30    31    1
    34    31    32    1
    35    32    33    1
    36    33    34    1
    37    34    35    1
    38    35    36    1
    39    36    37    1
    40    37    38    1
    41    38    39    1
    42    39    40    1
    43    40    41   ar
    44    41    42   ar
    45    42    43    1
    46    43    44   ar
    47    44    45    1
    48    44    46   ar
    49    46    47   ar
    50    47    48   ar
    51    43    48   ar
    52    42    49   ar
    53    49    50   ar
    54    50    51   ar
    55    40    51   ar
    56    51    52    1
    57    52    53    1
    58    53    54   am
    59    55    56    1
    60    56    57    1
    61    57    58    1
    62    57    59    1
    63    59    60    1
    64    55    60    1
    65    60    61   am
    66    63    64    1
    67    63    65    1
    68    63    66    1
    69    62    67    1
    70    67    68   am
    71    68    69    1
    72    69    70    1
    73    69    71    1
    74    71    72    1
    75    69    72    1
    76    68    73    2
    77    61    74    2
    78    54    75    2
    79    27    76    1
    80    76    77    1
    81    24    77    1
    82     1    78    1
    83     1    79    1
    84     1    80    1
    85     4    81    1
    86     9    82    1
    87    11    83    1
    88    12    84    1
    89    13    85    1
    90    15    86    1
    91    15    87    1
    92    15    88    1
    93    20    89    1
    94    20    90    1
    95    20    91    1
    96    21    92    1
    97    23    93    1
    98    23    94    1
    99    25    95    1
   100    25    96    1
   101    26    97    1
   102    26    98    1
   103    28    99    1
   104    28   100    1
   105    29   101    1
   106    29   102    1
   107    31   103    1
   108    31   104    1
   109    32   105    1
   110    32   106    1
   111    34   107    1
   112    34   108    1
   113    35   109    1
   114    35   110    1
   115    37   111    1
   116    37   112    1
   117    38   113    1
   118    38   114    1
   119    41   115    1
   120    45   116    1
   121    45   117    1
   122    45   118    1
   123    47   119    1
   124    49   120    1
   125    50   121    1
   126    52   122    1
   127    52   123    1
   128    53   124    1
   129    56   126    1
   130    56   127    1
   131    57   128    1
   132    58   129    1
   133    59   130    1
   134    59   131    1
   135    62   132    1
   136    64   133    1
   137    64   134    1
   138    64   135    1
   139    65   136    1
   140    65   137    1
   141    65   138    1
   142    66   139    1
   143    66   140    1
   144    66   141    1
   145    67   142    1
   146    71   143    1
   147    71   144    1
   148    72   145    1
   149    72   146    1
   150    76   147    1
   151    76   148    1
   152    77   149    1
   153    77   150    1
   154    62    63    1
   155    62    61    1
   156    55   125    1
   157    55    54    1
