@<TRIPOS>MOLECULE
*****
 136 143 0 0 0
SMALL
GASTEIGER

@<TRIPOS>ATOM
      1 C          12.6453   12.0199   -4.9022 C.3     1  UNL1        0.0788
      2 O          12.1713   11.4239   -6.1349 O.3     1  UNL1       -0.4947
      3 C          12.5194   10.0640   -6.5216 C.ar    1  UNL1        0.1285
      4 C          12.0372    9.7448   -7.7926 C.ar    1  UNL1       -0.0116
      5 C          11.4921    8.4296   -8.0932 C.ar    1  UNL1       -0.0090
      6 C          10.9387    8.2344   -9.4279 C.ar    1  UNL1        0.0065
      7 C          11.9020    8.3794  -10.5033 C.ar    1  UNL1       -0.0007
      8 C          11.5298    8.1229  -11.7937 C.ar    1  UNL1        0.0653
      9 C          12.5021    8.2558  -12.7450 C.ar    1  UNL1        0.0405
     10 N          13.8244    8.3457  -12.4492 N.ar    1  UNL1       -0.2625
     11 C          14.1596    8.4532  -11.1564 C.ar    1  UNL1        0.0282
     12 C          13.2323    8.6845  -10.1972 C.ar    1  UNL1       -0.0351
     13 C           9.6963    7.8059   -9.7163 C.ar    1  UNL1        0.0159
     14 N           9.3030    7.5474  -11.0190 N.ar    1  UNL1       -0.3171
     15 C           7.9528    7.1157  -11.2968 C.3     1  UNL1        0.0147
     16 C          10.1625    7.7017  -12.1088 C.ar    1  UNL1        0.2603
     17 O           9.8525    7.4886  -13.2758 O.2     1  UNL1       -0.2670
     18 C          11.7408    7.2852   -7.2988 C.ar    1  UNL1       -0.0116
     19 C          12.4840    7.4493   -6.0688 C.ar    1  UNL1        0.1285
     20 O          12.1884    6.2224   -5.1644 O.3     1  UNL1       -0.4947
     21 C          12.2456    5.8932   -3.6717 C.3     1  UNL1        0.0788
     22 C          12.7700    8.9172   -5.6566 C.ar    1  UNL1        0.0498
     23 C          12.8395    9.2853   -4.2257 C.3     1  UNL1        0.0311
     24 N          11.5277    9.3145   -3.8248 N.3     1  UNL1       -0.2955
     25 C          10.7269   10.1333   -4.6887 C.3     1  UNL1        0.0120
     26 C           9.7587    9.5952   -6.2668 C.3     1  UNL1        0.0118
     27 N           9.2628    7.8920   -6.2480 N.3     1  UNL1       -0.2977
     28 C           7.9480    7.1367   -5.7010 C.3     1  UNL1        0.0224
     29 C           7.9906    7.1011   -4.1393 C.3     1  UNL1        0.0605
     30 O           8.4004    8.3558   -2.8402 O.3     1  UNL1       -0.3752
     31 C           9.0758    9.5757   -2.5752 C.3     1  UNL1        0.0818
     32 C           9.8225    8.6996   -1.8409 C.3     1  UNL1        0.1128
     33 O           9.6002    7.0586   -2.4302 O.3     1  UNL1       -0.4893
     34 C           8.4981    6.4606   -1.9777 C.ar    1  UNL1        0.1259
     35 C           8.9109    5.1977   -1.9154 C.ar    1  UNL1       -0.0113
     36 C           7.7551    4.5341   -1.9704 C.ar    1  UNL1       -0.0061
     37 C           7.9002    3.1685   -1.9421 C.ar    1  UNL1        0.0418
     38 C           7.4188    2.3192   -2.8850 C.ar    1  UNL1        0.0531
     39 C           6.6904    2.6910   -4.1432 C.3     1  UNL1       -0.0212
     40 N           7.6349    1.0298   -2.4955 N.ar    1  UNL1       -0.2520
     41 C           8.2877    1.0301   -1.3470 C.ar    1  UNL1        0.0655
     42 S           8.6925    2.4965   -0.6197 S.2     1  UNL1       -0.0752
     43 C           6.3919    5.0281   -2.1272 C.ar    1  UNL1       -0.0529
     44 C           5.9921    6.2869   -2.3348 C.ar    1  UNL1       -0.0530
     45 C           7.0314    7.1228   -2.2381 C.ar    1  UNL1        0.0113
     46 C           6.6663    8.5473   -3.3518 C.3     1  UNL1        0.0403
     47 N           6.7651    9.0983   -5.3258 N.am    1  UNL1       -0.3095
     48 C           6.0784   10.2466   -6.0176 C.2     1  UNL1        0.2339
     49 C           4.9281    9.6572   -6.7124 C.3     1  UNL1        0.1047
     50 C           5.0630   10.2042   -8.1197 C.3     1  UNL1        0.0018
     51 C           3.6426   10.6595   -8.3533 C.3     1  UNL1        0.0731
     52 O           2.8231    9.4966   -8.5467 O.3     1  UNL1       -0.3902
     53 C           3.2375   11.3185   -7.0445 C.3     1  UNL1        0.0416
     54 N           3.7375   10.3844   -6.0567 N.am    1  UNL1       -0.2858
     55 C           3.3493   10.7093   -4.7167 C.2     1  UNL1        0.2371
     56 C           3.7822    9.9927   -3.3593 C.3     1  UNL1        0.1045
     57 C           3.4162    9.8715   -1.9488 C.3     1  UNL1       -0.0108
     58 C           4.2651   10.7789   -0.9674 C.3     1  UNL1       -0.0579
     59 C           2.0442   10.3312   -2.1935 C.3     1  UNL1       -0.0579
     60 C           3.5627    8.4182   -1.4898 C.3     1  UNL1       -0.0579
     61 N           4.9623   10.7270   -3.0810 N.am    1  UNL1       -0.3009
     62 C           5.7635   10.3575   -3.8599 C.2     1  UNL1        0.2508
     63 C           7.3080   11.2360   -3.6788 C.3     1  UNL1        0.1868
     64 F           7.6250   11.2714   -2.1778 F       1  UNL1       -0.2320
     65 C           8.3580   10.5155   -4.7368 C.3     1  UNL1       -0.0068
     66 C           8.5146   11.8956   -4.6835 C.3     1  UNL1       -0.0068
     67 O           5.2083    9.2095   -4.3246 O.2     1  UNL1       -0.2723
     68 O           2.7413   11.7744   -4.5477 O.2     1  UNL1       -0.2735
     69 O           6.0068   11.4480   -5.6912 O.2     1  UNL1       -0.2738
     70 C          10.2116    7.2488   -4.9165 C.3     1  UNL1        0.0118
     71 C          11.1225    7.9795   -3.5151 C.3     1  UNL1        0.0120
     72 H          12.4564   13.0913   -4.8398 H       1  UNL1        0.0660
     73 H          13.6769   11.7093   -4.8264 H       1  UNL1        0.0660
     74 H          12.1465   11.8018   -3.9366 H       1  UNL1        0.0660
     75 H          11.9284   10.5621   -8.5109 H       1  UNL1        0.0660
     76 H          12.2357    8.2552  -13.7917 H       1  UNL1        0.0837
     77 H          15.1908    8.2942  -10.8683 H       1  UNL1        0.0830
     78 H          13.5790    9.0060   -9.2226 H       1  UNL1        0.0639
     79 H           8.9498    7.6300   -8.9458 H       1  UNL1        0.0816
     80 H           7.4911    7.8504  -11.9629 H       1  UNL1        0.0457
     81 H           7.9872    6.1448  -11.8004 H       1  UNL1        0.0457
     82 H           7.3703    7.0353  -10.3763 H       1  UNL1        0.0457
     83 H          11.1672    6.3665   -7.5310 H       1  UNL1        0.0660
     84 H          12.9115    6.6850   -3.3804 H       1  UNL1        0.0660
     85 H          11.5946    6.1493   -2.7416 H       1  UNL1        0.0660
     86 H          11.3719    5.2419   -3.4428 H       1  UNL1        0.0660
     87 H          13.3411    8.6141   -3.5783 H       1  UNL1        0.0478
     88 H          13.0362   10.2438   -3.7948 H       1  UNL1        0.0478
     89 H          10.1954    9.7392   -3.9334 H       1  UNL1        0.0439
     90 H          10.5521   11.0827   -4.1280 H       1  UNL1        0.0439
     91 H          10.3888   10.2016   -6.8669 H       1  UNL1        0.0439
     92 H           8.8278   10.1773   -6.6810 H       1  UNL1        0.0439
     93 H           6.8966    7.3208   -6.0811 H       1  UNL1        0.0449
     94 H           7.9265    6.0522   -5.8201 H       1  UNL1        0.0449
     95 H           6.8026    7.0391   -4.2308 H       1  UNL1        0.0572
     96 H           8.6907    7.7308   -4.3474 H       1  UNL1        0.0572
     97 H           8.2678    9.8362   -3.1075 H       1  UNL1        0.0594
     98 H           9.3478   10.6232   -2.3707 H       1  UNL1        0.0594
     99 H          10.8564    9.1187   -1.9221 H       1  UNL1        0.0720
    100 H           9.9447    8.7740   -0.8308 H       1  UNL1        0.0720
    101 H           9.9579    4.8599   -1.8884 H       1  UNL1        0.0660
    102 H           7.1950    2.2581   -5.0056 H       1  UNL1        0.0293
    103 H           5.6613    2.3300   -4.0812 H       1  UNL1        0.0293
    104 H           6.6242    3.7730   -4.3536 H       1  UNL1        0.0293
    105 H           8.5797    0.1515   -0.8243 H       1  UNL1        0.0907
    106 H           5.5339    4.3930   -2.0996 H       1  UNL1        0.0624
    107 H           5.1627    6.6282   -2.9063 H       1  UNL1        0.0622
    108 H           6.7487    9.3318   -2.5065 H       1  UNL1        0.0513
    109 H           7.4759    8.7851   -3.9952 H       1  UNL1        0.0513
    110 H           7.4268    8.8953   -6.0406 H       1  UNL1        0.1491
    111 H           4.9092    8.5639   -6.7549 H       1  UNL1        0.0597
    112 H           5.4002    9.4040   -8.7848 H       1  UNL1        0.0313
    113 H           5.8044   11.0195   -8.1856 H       1  UNL1        0.0313
    114 H           3.5664   11.3059   -9.2230 H       1  UNL1        0.0610
    115 H           2.7779    9.0234   -7.6897 H       1  UNL1        0.2098
    116 H           3.6877   12.3179   -6.9281 H       1  UNL1        0.0490
    117 H           2.1634   11.3757   -6.8824 H       1  UNL1        0.0490
    118 H           3.6965    8.8942   -3.6748 H       1  UNL1        0.0600
    119 H           4.3578   11.8070   -1.3775 H       1  UNL1        0.0236
    120 H           3.7968   10.8425   -0.0122 H       1  UNL1        0.0236
    121 H           5.3124   10.4074   -0.8440 H       1  UNL1        0.0236
    122 H           1.6028    9.7043   -2.9919 H       1  UNL1        0.0236
    123 H           1.5212   10.3094   -1.2717 H       1  UNL1        0.0236
    124 H           2.1121   11.3683   -2.5337 H       1  UNL1        0.0236
    125 H           3.0990    7.7066   -2.1870 H       1  UNL1        0.0236
    126 H           4.6071    8.1066   -1.3611 H       1  UNL1        0.0236
    127 H           3.0771    8.3512   -0.5267 H       1  UNL1        0.0236
    128 H           5.3495   11.6282   -2.8582 H       1  UNL1        0.1496
    129 H           9.0265    9.4033   -4.6602 H       1  UNL1        0.0302
    130 H           8.5909    9.4114   -4.9503 H       1  UNL1        0.0302
    131 H           8.3271   12.1571   -5.7056 H       1  UNL1        0.0302
    132 H           9.4306   12.3602   -4.3440 H       1  UNL1        0.0302
    133 H          10.8317    7.8480   -5.4085 H       1  UNL1        0.0439
    134 H          10.0697    6.1611   -5.1440 H       1  UNL1        0.0439
    135 H          11.9893    7.8380   -2.8044 H       1  UNL1        0.0439
    136 H          11.0921    7.5395   -2.2838 H       1  UNL1        0.0439
@<TRIPOS>BOND
     1     1     2    1
     2     2     3    1
     3     3     4   ar
     4     4     5   ar
     5     5     6    1
     6     6     7   ar
     7     7     8   ar
     8     8     9   ar
     9     9    10   ar
    10    10    11   ar
    11    11    12   ar
    12     7    12   ar
    13     6    13   ar
    14    13    14   ar
    15    14    15    1
    16    14    16   ar
    17     8    16   ar
    18    16    17    2
    19     5    18   ar
    20    18    19   ar
    21    19    20    1
    22    20    21    1
    23    19    22   ar
    24     3    22   ar
    25    22    23    1
    26    23    24    1
    27    24    25    1
    28    25    26    1
    29    26    27    1
    30    27    28    1
    31    28    29    1
    32    29    30    1
    33    30    31    1
    34    31    32    1
    35    32    33    1
    36    33    34    1
    37    34    35   ar
    38    35    36   ar
    39    36    37    1
    40    37    38   ar
    41    38    39    1
    42    38    40   ar
    43    40    41   ar
    44    41    42   ar
    45    37    42   ar
    46    36    43   ar
    47    43    44   ar
    48    44    45   ar
    49    34    45   ar
    50    45    46    1
    51    46    47    1
    52    47    48   am
    53    49    50    1
    54    50    51    1
    55    51    52    1
    56    51    53    1
    57    53    54    1
    58    49    54    1
    59    54    55   am
    60    57    58    1
    61    57    59    1
    62    57    60    1
    63    56    61    1
    64    61    62   am
    65    62    63    1
    66    63    64    1
    67    63    65    1
    68    65    66    1
    69    63    66    1
    70    62    67    2
    71    55    68    2
    72    48    69    2
    73    27    70    1
    74    70    71    1
    75    24    71    1
    76     1    72    1
    77     1    73    1
    78     1    74    1
    79     4    75    1
    80     9    76    1
    81    11    77    1
    82    12    78    1
    83    13    79    1
    84    15    80    1
    85    15    81    1
    86    15    82    1
    87    18    83    1
    88    21    84    1
    89    21    85    1
    90    21    86    1
    91    23    87    1
    92    23    88    1
    93    25    89    1
    94    25    90    1
    95    26    91    1
    96    26    92    1
    97    28    93    1
    98    28    94    1
    99    29    95    1
   100    29    96    1
   101    31    97    1
   102    31    98    1
   103    32    99    1
   104    32   100    1
   105    35   101    1
   106    39   102    1
   107    39   103    1
   108    39   104    1
   109    41   105    1
   110    43   106    1
   111    44   107    1
   112    46   108    1
   113    46   109    1
   114    47   110    1
   115    50   112    1
   116    50   113    1
   117    51   114    1
   118    52   115    1
   119    53   116    1
   120    53   117    1
   121    56   118    1
   122    58   119    1
   123    58   120    1
   124    58   121    1
   125    59   122    1
   126    59   123    1
   127    59   124    1
   128    60   125    1
   129    60   126    1
   130    60   127    1
   131    61   128    1
   132    65   129    1
   133    65   130    1
   134    66   131    1
   135    66   132    1
   136    70   133    1
   137    70   134    1
   138    71   135    1
   139    71   136    1
   140    56    57    1
   141    56    55    1
   142    49   111    1
   143    49    48    1
