@<TRIPOS>MOLECULE
*****
 94 97 0 0 0
SMALL
GASTEIGER

@<TRIPOS>ATOM
      1 C           1.1550   -0.2576   -0.1429 C.3     1  UNL1        0.0788
      2 O           0.9065    1.1253   -0.1675 O.3     1  UNL1       -0.4947
      3 C           1.3957    1.8838    0.8424 C.ar    1  UNL1        0.1285
      4 C           2.5438    1.7129    1.5477 C.ar    1  UNL1       -0.0116
      5 C           2.8852    2.6029    2.5913 C.ar    1  UNL1       -0.0090
      6 C           4.1693    2.5632    3.1798 C.ar    1  UNL1        0.0065
      7 C           5.0741    2.9317    2.2651 C.ar    1  UNL1        0.0159
      8 N           6.3813    2.9914    2.5662 N.ar    1  UNL1       -0.3171
      9 C           7.3076    3.2782    1.5006 C.3     1  UNL1        0.0147
     10 C           6.9028    2.7104    3.8602 C.ar    1  UNL1        0.2603
     11 C           5.8563    2.3765    4.8860 C.ar    1  UNL1        0.0653
     12 C           4.5218    2.3394    4.5621 C.ar    1  UNL1       -0.0007
     13 C           3.5707    1.9984    5.5196 C.ar    1  UNL1       -0.0351
     14 C           4.0315    1.4163    6.6716 C.ar    1  UNL1        0.0282
     15 N           5.3236    1.4723    7.0471 N.ar    1  UNL1       -0.2625
     16 C           6.2022    2.0285    6.1677 C.ar    1  UNL1        0.0405
     17 O           8.0371    2.7032    4.1333 O.2     1  UNL1       -0.2670
     18 C           2.2082    3.7273    2.9759 C.ar    1  UNL1       -0.0116
     19 C           1.0559    3.9628    2.3024 C.ar    1  UNL1        0.1285
     20 O           0.3208    4.9593    2.9636 O.3     1  UNL1       -0.4947
     21 C           0.6944    5.8415    4.0888 C.3     1  UNL1        0.0788
     22 C           0.5577    2.8898    1.2675 C.ar    1  UNL1        0.0498
     23 C          -0.8852    2.2280    1.0284 C.3     1  UNL1        0.0311
     24 N          -1.3595    1.8466    2.3147 N.3     1  UNL1       -0.2955
     25 C          -1.0128    0.5112    2.7033 C.3     1  UNL1        0.0120
     26 C           0.1734    0.5631    3.8483 C.3     1  UNL1        0.0118
     27 N           0.1882    1.5417    5.0630 N.3     1  UNL1       -0.2977
     28 C          -0.2424    1.2668    6.5186 C.3     1  UNL1        0.0224
     29 C          -1.6663    0.8035    7.0579 C.3     1  UNL1        0.0605
     30 O          -2.3964   -0.2404    6.4228 O.3     1  UNL1       -0.3762
     31 C          -2.3049    0.0373    5.0751 C.3     1  UNL1        0.0711
     32 C          -2.9604    1.3181    4.7142 C.3     1  UNL1        0.0711
     33 O          -2.6221    2.5722    5.3432 O.3     1  UNL1       -0.3752
     34 C          -3.6548    3.1323    6.0469 C.3     1  UNL1        0.0711
     35 C          -4.9009    3.2124    5.1527 C.3     1  UNL1        0.0717
     36 O          -5.1860    2.3722    4.0006 O.3     1  UNL1       -0.3664
     37 C          -4.5931    2.6725    2.7208 C.3     1  UNL1        0.1445
     38 C          -4.9455    4.0450    2.0763 C.2     1  UNL1        0.3336
     39 O          -4.0385    5.1417    1.9557 O.3     1  UNL1       -0.4573
     40 C          -2.5810    5.4380    2.2899 C.3     1  UNL1        0.1053
     41 C          -2.4960    5.3766    3.8778 C.3     1  UNL1       -0.0254
     42 C          -1.9826    4.5146    1.2629 C.3     1  UNL1       -0.0254
     43 C          -1.6756    6.6132    1.8695 C.3     1  UNL1       -0.0254
     44 O          -6.0901    4.2030    1.7580 O.2     1  UNL1       -0.2482
     45 C          -0.2876    2.8100    4.5760 C.3     1  UNL1        0.0118
     46 C          -1.2463    2.8175    3.3819 C.3     1  UNL1        0.0120
     47 H           0.7006   -0.6418   -1.0582 H       1  UNL1        0.0660
     48 H           0.6947   -0.7811    0.7040 H       1  UNL1        0.0660
     49 H           2.2271   -0.3971   -0.1656 H       1  UNL1        0.0660
     50 H           3.2032    0.8870    1.3362 H       1  UNL1        0.0660
     51 H           4.7668    3.1813    1.2467 H       1  UNL1        0.0816
     52 H           7.8782    4.1600    1.7845 H       1  UNL1        0.0457
     53 H           7.9602    2.4136    1.3778 H       1  UNL1        0.0457
     54 H           6.7775    3.4689    0.5576 H       1  UNL1        0.0457
     55 H           2.5087    2.0886    5.3510 H       1  UNL1        0.0639
     56 H           3.3556    0.8319    7.2897 H       1  UNL1        0.0830
     57 H           7.2168    2.1518    6.5193 H       1  UNL1        0.0837
     58 H           2.4302    4.1928    3.9470 H       1  UNL1        0.0660
     59 H           0.8422    5.3480    5.0638 H       1  UNL1        0.0660
     60 H           1.5270    6.4945    3.8410 H       1  UNL1        0.0660
     61 H          -0.1569    6.5167    4.2908 H       1  UNL1        0.0660
     62 H          -1.5448    2.6724    0.2590 H       1  UNL1        0.0478
     63 H          -1.0433    1.2619    0.5003 H       1  UNL1        0.0478
     64 H          -2.0324    0.1394    2.8649 H       1  UNL1        0.0439
     65 H          -0.8695   -0.2322    1.9096 H       1  UNL1        0.0439
     66 H           1.0200    0.8643    3.2481 H       1  UNL1        0.0439
     67 H           0.4218   -0.4252    4.2240 H       1  UNL1        0.0439
     68 H           0.4574    0.5582    6.9323 H       1  UNL1        0.0449
     69 H          -0.1106    2.2368    7.0508 H       1  UNL1        0.0449
     70 H          -2.1638    1.0517    7.9996 H       1  UNL1        0.0572
     71 H          -2.0611    1.6980    6.7340 H       1  UNL1        0.0572
     72 H          -1.2959    0.2011    4.9900 H       1  UNL1        0.0583
     73 H          -2.3770   -0.8073    4.3873 H       1  UNL1        0.0583
     74 H          -2.8255    1.4718    3.6861 H       1  UNL1        0.0583
     75 H          -3.9723    1.0871    4.6750 H       1  UNL1        0.0583
     76 H          -3.8024    2.4192    6.8493 H       1  UNL1        0.0583
     77 H          -3.3152    4.0570    6.5677 H       1  UNL1        0.0583
     78 H          -5.6091    2.8791    5.9037 H       1  UNL1        0.0583
     79 H          -5.0614    4.2203    4.8172 H       1  UNL1        0.0583
     80 H          -3.5509    2.7350    2.7427 H       1  UNL1        0.0676
     81 H          -4.6452    1.7312    2.1022 H       1  UNL1        0.0676
     82 H          -3.2834    4.6996    4.1167 H       1  UNL1        0.0268
     83 H          -1.5587    5.0266    4.3122 H       1  UNL1        0.0268
     84 H          -2.7579    6.1667    4.5954 H       1  UNL1        0.0268
     85 H          -1.6746    4.7191    0.2294 H       1  UNL1        0.0268
     86 H          -0.9902    4.3562    1.5929 H       1  UNL1        0.0268
     87 H          -2.5995    3.6296    1.2502 H       1  UNL1        0.0268
     88 H          -1.7087    6.8042    0.7978 H       1  UNL1        0.0268
     89 H          -1.8158    7.4302    2.5536 H       1  UNL1        0.0268
     90 H          -0.5859    6.4296    1.9617 H       1  UNL1        0.0268
     91 H           0.5881    3.0536    4.0887 H       1  UNL1        0.0439
     92 H          -0.2889    3.6459    5.3008 H       1  UNL1        0.0439
     93 H          -1.5540    3.7137    2.9877 H       1  UNL1        0.0439
     94 H          -2.1919    3.0703    3.7536 H       1  UNL1        0.0439
@<TRIPOS>BOND
     1     1     2    1
     2     2     3    1
     3     3     4   ar
     4     4     5   ar
     5     5     6    1
     6     6     7   ar
     7     7     8   ar
     8     8     9    1
     9     8    10   ar
    10    10    11   ar
    11    11    12   ar
    12     6    12   ar
    13    12    13   ar
    14    13    14   ar
    15    14    15   ar
    16    15    16   ar
    17    11    16   ar
    18    10    17    2
    19     5    18   ar
    20    18    19   ar
    21    19    20    1
    22    20    21    1
    23     3    22   ar
    24    19    22   ar
    25    22    23    1
    26    23    24    1
    27    24    25    1
    28    25    26    1
    29    26    27    1
    30    27    28    1
    31    28    29    1
    32    29    30    1
    33    30    31    1
    34    31    32    1
    35    32    33    1
    36    33    34    1
    37    34    35    1
    38    35    36    1
    39    36    37    1
    40    37    38    1
    41    38    39    1
    42    39    40    1
    43    40    41    1
    44    40    42    1
    45    40    43    1
    46    38    44    2
    47    27    45    1
    48    45    46    1
    49    24    46    1
    50     1    47    1
    51     1    48    1
    52     1    49    1
    53     4    50    1
    54     7    51    1
    55     9    52    1
    56     9    53    1
    57     9    54    1
    58    13    55    1
    59    14    56    1
    60    16    57    1
    61    18    58    1
    62    21    59    1
    63    21    60    1
    64    21    61    1
    65    23    62    1
    66    23    63    1
    67    25    64    1
    68    25    65    1
    69    26    66    1
    70    26    67    1
    71    28    68    1
    72    28    69    1
    73    29    70    1
    74    29    71    1
    75    31    72    1
    76    31    73    1
    77    32    74    1
    78    32    75    1
    79    34    76    1
    80    34    77    1
    81    35    78    1
    82    35    79    1
    83    37    80    1
    84    37    81    1
    85    41    82    1
    86    41    83    1
    87    41    84    1
    88    42    85    1
    89    42    86    1
    90    42    87    1
    91    43    88    1
    92    43    89    1
    93    43    90    1
    94    45    91    1
    95    45    92    1
    96    46    93    1
    97    46    94    1
