@<TRIPOS>MOLECULE
*****
 101 104 0 0 0
SMALL
GASTEIGER

@<TRIPOS>ATOM
      1 C           1.1478    0.1454   -0.1237 C.3     1  UNL1        0.0788
      2 O           0.8007    0.1339    1.2269 O.3     1  UNL1       -0.4947
      3 C           1.3707   -0.7153    2.1136 C.ar    1  UNL1        0.1285
      4 C           2.4711   -1.5285    1.9155 C.ar    1  UNL1       -0.0116
      5 C           2.8496   -2.5118    2.8782 C.ar    1  UNL1       -0.0090
      6 C           4.1199   -3.1715    2.7457 C.ar    1  UNL1        0.0065
      7 C           5.0470   -2.2880    3.0695 C.ar    1  UNL1        0.0159
      8 N           6.3751   -2.6122    3.1136 N.ar    1  UNL1       -0.3171
      9 C           7.3046   -1.5671    3.4326 C.3     1  UNL1        0.0147
     10 C           6.8022   -3.8816    2.8399 C.ar    1  UNL1        0.2603
     11 C           5.8243   -4.9000    2.4989 C.ar    1  UNL1        0.0653
     12 C           4.4881   -4.5477    2.4698 C.ar    1  UNL1       -0.0007
     13 C           3.5740   -5.5027    2.0935 C.ar    1  UNL1       -0.0351
     14 C           4.0098   -6.6517    1.4846 C.ar    1  UNL1        0.0282
     15 N           5.2869   -7.0547    1.5643 N.ar    1  UNL1       -0.2625
     16 C           6.1553   -6.1906    2.1444 C.ar    1  UNL1        0.0405
     17 O           8.0548   -4.2091    2.8434 O.2     1  UNL1       -0.2670
     18 C           2.2171   -2.7315    4.1134 C.ar    1  UNL1       -0.0116
     19 C           1.1065   -1.9148    4.4330 C.ar    1  UNL1        0.1285
     20 O           0.2655   -2.4845    5.4668 O.3     1  UNL1       -0.4947
     21 C           0.4883   -3.8247    6.0948 C.3     1  UNL1        0.0788
     22 C           0.6044   -0.8589    3.2871 C.ar    1  UNL1        0.0498
     23 C          -1.0054   -0.6156    2.5418 C.3     1  UNL1        0.0311
     24 N          -1.4962   -1.8088    1.8723 N.3     1  UNL1       -0.2955
     25 C          -1.3113   -2.7989    0.5924 C.3     1  UNL1        0.0120
     26 C           0.0419   -3.7994    0.6597 C.3     1  UNL1        0.0118
     27 N           0.4832   -4.4818    1.9442 N.3     1  UNL1       -0.2977
     28 C           0.4356   -5.9713    2.4639 C.3     1  UNL1        0.0224
     29 C          -0.8516   -6.7567    2.7427 C.3     1  UNL1        0.0605
     30 O          -1.9368   -6.8070    1.8484 O.3     1  UNL1       -0.3762
     31 C          -2.0205   -5.5357    1.3588 C.3     1  UNL1        0.0711
     32 C          -2.1755   -4.5437    2.4044 C.3     1  UNL1        0.0711
     33 O          -1.6249   -4.4281    3.8035 O.3     1  UNL1       -0.3752
     34 C          -2.0232   -5.2708    4.7676 C.3     1  UNL1        0.0711
     35 C          -3.3577   -4.9839    4.3077 C.3     1  UNL1        0.0711
     36 O          -3.9927   -4.1333    3.3572 O.3     1  UNL1       -0.3752
     37 C          -4.2822   -2.8123    2.8043 C.3     1  UNL1        0.0711
     38 C          -4.7216   -1.8526    3.8291 C.3     1  UNL1        0.0717
     39 O          -4.0487   -2.1525    5.0470 O.3     1  UNL1       -0.3664
     40 C          -4.6281   -3.1816    5.8139 C.3     1  UNL1        0.1445
     41 C          -6.0980   -3.5931    5.8367 C.2     1  UNL1        0.3336
     42 O          -6.5527   -4.7419    5.0675 O.3     1  UNL1       -0.4573
     43 C          -5.9653   -5.7776    4.0490 C.3     1  UNL1        0.1053
     44 C          -5.7688   -5.0674    2.6813 C.3     1  UNL1       -0.0254
     45 C          -5.0136   -6.7786    4.8571 C.3     1  UNL1       -0.0254
     46 C          -6.8741   -6.7233    3.3160 C.3     1  UNL1       -0.0254
     47 O          -6.7875   -2.9313    6.5108 O.2     1  UNL1       -0.2482
     48 C           0.0266   -3.5518    2.9471 C.3     1  UNL1        0.0118
     49 C          -1.1883   -2.4465    3.1993 C.3     1  UNL1        0.0120
     50 H           0.7322    1.0834   -0.4988 H       1  UNL1        0.0660
     51 H           0.7017   -0.6797   -0.6925 H       1  UNL1        0.0660
     52 H           2.2266    0.1715   -0.1958 H       1  UNL1        0.0660
     53 H           3.0493   -1.4460    1.0041 H       1  UNL1        0.0660
     54 H           4.7728   -1.2605    3.3277 H       1  UNL1        0.0816
     55 H           7.8604   -1.8795    4.3172 H       1  UNL1        0.0457
     56 H           7.9753   -1.4500    2.5798 H       1  UNL1        0.0457
     57 H           6.7933   -0.6194    3.6313 H       1  UNL1        0.0457
     58 H           2.5387   -5.3012    2.1963 H       1  UNL1        0.0639
     59 H           3.3310   -7.2360    0.8693 H       1  UNL1        0.0830
     60 H           7.1655   -6.5534    2.2889 H       1  UNL1        0.0837
     61 H           2.3440   -3.7669    4.4942 H       1  UNL1        0.0660
     62 H           0.5881   -4.7332    5.4580 H       1  UNL1        0.0660
     63 H           1.3982   -3.8193    6.6806 H       1  UNL1        0.0660
     64 H          -0.3730   -4.0779    6.7413 H       1  UNL1        0.0660
     65 H          -1.7431   -0.3797    3.3432 H       1  UNL1        0.0478
     66 H          -1.2086    0.1887    1.8463 H       1  UNL1        0.0478
     67 H          -2.3022   -3.3602    0.5255 H       1  UNL1        0.0439
     68 H          -1.6144   -2.6408   -0.4784 H       1  UNL1        0.0439
     69 H           0.7454   -3.0001    0.4418 H       1  UNL1        0.0439
     70 H           0.1803   -4.5513   -0.1243 H       1  UNL1        0.0439
     71 H           0.9766   -6.6412    1.8249 H       1  UNL1        0.0449
     72 H           0.9111   -5.9767    3.4875 H       1  UNL1        0.0449
     73 H          -1.0309   -7.4788    3.5301 H       1  UNL1        0.0572
     74 H          -1.0215   -5.9610    3.3459 H       1  UNL1        0.0572
     75 H          -1.0637   -5.3665    1.0406 H       1  UNL1        0.0583
     76 H          -2.4322   -5.3464    0.3693 H       1  UNL1        0.0583
     77 H          -2.1324   -3.5541    2.1831 H       1  UNL1        0.0583
     78 H          -3.0488   -4.1564    1.9381 H       1  UNL1        0.0583
     79 H          -2.0027   -6.3407    4.6827 H       1  UNL1        0.0583
     80 H          -1.3339   -5.4102    5.6124 H       1  UNL1        0.0583
     81 H          -3.4677   -5.9653    3.8659 H       1  UNL1        0.0583
     82 H          -3.1949   -4.3673    5.1253 H       1  UNL1        0.0583
     83 H          -3.4429   -2.2590    2.5033 H       1  UNL1        0.0583
     84 H          -4.6540   -2.8518    1.7259 H       1  UNL1        0.0583
     85 H          -4.3529   -0.8798    3.4797 H       1  UNL1        0.0583
     86 H          -5.7940   -1.8357    3.9455 H       1  UNL1        0.0583
     87 H          -4.6238   -4.1204    5.3568 H       1  UNL1        0.0676
     88 H          -3.9076   -3.4250    6.6244 H       1  UNL1        0.0676
     89 H          -5.7690   -4.1303    3.1856 H       1  UNL1        0.0268
     90 H          -4.9875   -5.5175    2.0311 H       1  UNL1        0.0268
     91 H          -6.3988   -4.5055    1.9708 H       1  UNL1        0.0268
     92 H          -5.5317   -7.4390    5.5424 H       1  UNL1        0.0268
     93 H          -4.4128   -7.4387    4.1956 H       1  UNL1        0.0268
     94 H          -4.3501   -6.2939    5.5947 H       1  UNL1        0.0268
     95 H          -7.3606   -7.3615    4.0201 H       1  UNL1        0.0268
     96 H          -7.5967   -6.1611    2.7107 H       1  UNL1        0.0268
     97 H          -6.2433   -7.3117    2.6048 H       1  UNL1        0.0268
     98 H           0.6708   -2.8576    2.5379 H       1  UNL1        0.0439
     99 H           0.3418   -4.0045    3.8610 H       1  UNL1        0.0439
    100 H          -1.1797   -1.8940    4.1861 H       1  UNL1        0.0439
    101 H          -2.1729   -2.6209    3.6386 H       1  UNL1        0.0439
@<TRIPOS>BOND
     1     1     2    1
     2     2     3    1
     3     3     4   ar
     4     4     5   ar
     5     5     6    1
     6     6     7   ar
     7     7     8   ar
     8     8     9    1
     9     8    10   ar
    10    10    11   ar
    11    11    12   ar
    12     6    12   ar
    13    12    13   ar
    14    13    14   ar
    15    14    15   ar
    16    15    16   ar
    17    11    16   ar
    18    10    17    2
    19     5    18   ar
    20    18    19   ar
    21    19    20    1
    22    20    21    1
    23     3    22   ar
    24    19    22   ar
    25    22    23    1
    26    23    24    1
    27    24    25    1
    28    25    26    1
    29    26    27    1
    30    27    28    1
    31    28    29    1
    32    29    30    1
    33    30    31    1
    34    31    32    1
    35    32    33    1
    36    33    34    1
    37    34    35    1
    38    35    36    1
    39    36    37    1
    40    37    38    1
    41    38    39    1
    42    39    40    1
    43    40    41    1
    44    41    42    1
    45    42    43    1
    46    43    44    1
    47    43    45    1
    48    43    46    1
    49    41    47    2
    50    27    48    1
    51    48    49    1
    52    24    49    1
    53     1    50    1
    54     1    51    1
    55     1    52    1
    56     4    53    1
    57     7    54    1
    58     9    55    1
    59     9    56    1
    60     9    57    1
    61    13    58    1
    62    14    59    1
    63    16    60    1
    64    18    61    1
    65    21    62    1
    66    21    63    1
    67    21    64    1
    68    23    65    1
    69    23    66    1
    70    25    67    1
    71    25    68    1
    72    26    69    1
    73    26    70    1
    74    28    71    1
    75    28    72    1
    76    29    73    1
    77    29    74    1
    78    31    75    1
    79    31    76    1
    80    32    77    1
    81    32    78    1
    82    34    79    1
    83    34    80    1
    84    35    81    1
    85    35    82    1
    86    37    83    1
    87    37    84    1
    88    38    85    1
    89    38    86    1
    90    40    87    1
    91    40    88    1
    92    44    89    1
    93    44    90    1
    94    44    91    1
    95    45    92    1
    96    45    93    1
    97    45    94    1
    98    46    95    1
    99    46    96    1
   100    46    97    1
   101    48    98    1
   102    48    99    1
   103    49   100    1
   104    49   101    1
