@<TRIPOS>MOLECULE
*****
 33 32 0 0 0
SMALL
GASTEIGER

@<TRIPOS>ATOM
      1 O           1.4246    0.2672    1.2927 O.3     1  UNL1       -0.3927
      2 C           0.7200   -0.9561    1.5095 C.3     1  UNL1        0.0676
      3 C           1.3503   -2.2855    1.0552 C.3     1  UNL1        0.0707
      4 O           2.7195   -2.3242    0.7077 O.3     1  UNL1       -0.3775
      5 C           3.1701   -1.5407   -0.3813 C.3     1  UNL1        0.0478
      6 C           2.5512   -1.8248   -1.7468 C.3     1  UNL1       -0.0293
      7 C           1.0329   -1.7828   -1.9427 C.3     1  UNL1       -0.0464
      8 C           0.3482   -0.4205   -1.8144 C.3     1  UNL1       -0.0016
      9 C           0.9079    0.7499   -2.6310 C.3     1  UNL1        0.1584
     10 O           0.5919    0.6802   -4.0181 O.3     1  UNL1       -0.3545
     11 C           0.9472   -0.5477   -4.6284 C.3     1  UNL1        0.0394
     12 O           0.4535    1.9967   -2.0761 O.3     1  UNL1       -0.3545
     13 C          -0.9612    2.1241   -2.0080 C.3     1  UNL1        0.0394
     14 H           1.6394    0.4167    0.3774 H       1  UNL1        0.2095
     15 H           0.6183   -1.0140    2.5892 H       1  UNL1        0.0580
     16 H          -0.3025   -0.8732    1.1153 H       1  UNL1        0.0580
     17 H           1.2091   -2.9946    1.8774 H       1  UNL1        0.0583
     18 H           0.7538   -2.8056    0.3141 H       1  UNL1        0.0583
     19 H           3.1565   -0.4795   -0.1419 H       1  UNL1        0.0560
     20 H           4.2436   -1.7561   -0.4721 H       1  UNL1        0.0560
     21 H           3.0184   -1.1275   -2.4522 H       1  UNL1        0.0287
     22 H           2.8841   -2.8190   -2.0665 H       1  UNL1        0.0287
     23 H           0.8511   -2.2669   -2.8978 H       1  UNL1        0.0268
     24 H           0.4637   -2.4785   -1.3402 H       1  UNL1        0.0268
     25 H          -0.7193   -0.5559   -2.0271 H       1  UNL1        0.0314
     26 H           0.3521   -0.1106   -0.7811 H       1  UNL1        0.0314
     27 H           1.9965    0.7988   -2.5219 H       1  UNL1        0.0909
     28 H           1.9866   -0.8158   -4.4085 H       1  UNL1        0.0525
     29 H           0.2418   -1.3164   -4.3138 H       1  UNL1        0.0525
     30 H           0.8186   -0.4944   -5.7065 H       1  UNL1        0.0525
     31 H          -1.4207    1.9068   -2.9751 H       1  UNL1        0.0525
     32 H          -1.3725    1.4651   -1.2366 H       1  UNL1        0.0525
     33 H          -1.2083    3.1492   -1.7193 H       1  UNL1        0.0525
@<TRIPOS>BOND
     1     1     2    1
     2     2     3    1
     3     3     4    1
     4     4     5    1
     5     5     6    1
     6     6     7    1
     7     7     8    1
     8     8     9    1
     9     9    10    1
    10    10    11    1
    11     9    12    1
    12    12    13    1
    13     1    14    1
    14     2    15    1
    15     2    16    1
    16     3    17    1
    17     3    18    1
    18     5    19    1
    19     5    20    1
    20     6    21    1
    21     6    22    1
    22     7    23    1
    23     7    24    1
    24     8    25    1
    25     8    26    1
    26     9    27    1
    27    11    28    1
    28    11    29    1
    29    11    30    1
    30    13    31    1
    31    13    32    1
    32    13    33    1
