@<TRIPOS>MOLECULE
*****
 57 59 0 0 0
SMALL
GASTEIGER

@<TRIPOS>ATOM
      1 O           5.3930    0.5614   -0.3479 O.2     1  UNL1       -0.2738
      2 C           4.8861   -0.4644   -0.7919 C.2     1  UNL1        0.2340
      3 N           5.8312   -1.2367   -1.3104 N.am    1  UNL1       -0.3095
      4 C           5.6538   -2.6116   -1.3892 C.3     1  UNL1        0.0403
      5 C           6.1326   -3.1647   -2.6394 C.ar    1  UNL1        0.0111
      6 C           5.6056   -4.3916   -3.0350 C.ar    1  UNL1        0.1221
      7 O           4.7299   -5.1250   -2.2901 O.3     1  UNL1       -0.5064
      8 C           5.9323   -4.8794   -4.2634 C.ar    1  UNL1       -0.0116
      9 C           6.8002   -4.1315   -5.0601 C.ar    1  UNL1       -0.0061
     10 C           7.2749   -2.8711   -4.6855 C.ar    1  UNL1       -0.0529
     11 C           6.9364   -2.3805   -3.4661 C.ar    1  UNL1       -0.0530
     12 C           7.3964   -4.7252   -6.2158 C.ar    1  UNL1        0.0418
     13 C           8.7402   -4.9792   -6.4064 C.ar    1  UNL1        0.0531
     14 C           9.8422   -4.7073   -5.4354 C.3     1  UNL1       -0.0212
     15 N           9.0303   -5.5324   -7.6364 N.ar    1  UNL1       -0.2520
     16 C           7.9142   -5.6796   -8.3194 C.ar    1  UNL1        0.0655
     17 S           6.4661   -5.1790   -7.5610 S.2     1  UNL1       -0.0752
     18 C           3.3071   -0.8749   -0.8286 C.3     1  UNL1        0.1077
     19 N           2.4326   -0.8823   -2.1188 N.am    1  UNL1       -0.2533
     20 C           1.6993    0.0685   -2.9195 C.2     1  UNL1        0.4041
     21 O           1.5600    1.4167   -2.5786 O.3     1  UNL1       -0.4445
     22 C           2.1974    1.9684   -1.4405 C.3     1  UNL1        0.1068
     23 C           1.4834    1.3749   -0.2034 C.3     1  UNL1       -0.0253
     24 C           3.6648    1.7979   -1.7352 C.3     1  UNL1       -0.0253
     25 C           2.2200    3.4838   -1.2136 C.3     1  UNL1       -0.0253
     26 O           1.1401   -0.2896   -3.9440 O.2     1  UNL1       -0.2262
     27 C           2.1593   -2.2663   -2.4822 C.3     1  UNL1        0.0447
     28 C           2.1098   -3.0047   -1.1423 C.3     1  UNL1        0.0732
     29 O           2.5607   -4.3479   -1.1927 O.3     1  UNL1       -0.3902
     30 C           2.9913   -2.2274   -0.1600 C.3     1  UNL1        0.0020
     31 H           6.7464   -0.7988   -1.2813 H       1  UNL1        0.1491
     32 H           5.9988   -3.0900   -0.4722 H       1  UNL1        0.0513
     33 H           4.6036   -2.7510   -1.5428 H       1  UNL1        0.0513
     34 H           4.7261   -4.8724   -1.3466 H       1  UNL1        0.2921
     35 H           5.5592   -5.8528   -4.5587 H       1  UNL1        0.0660
     36 H           7.9597   -2.2957   -5.3006 H       1  UNL1        0.0624
     37 H           7.2794   -1.3865   -3.1914 H       1  UNL1        0.0622
     38 H          10.3711   -5.6308   -5.1920 H       1  UNL1        0.0293
     39 H          10.5429   -3.9819   -5.8574 H       1  UNL1        0.0293
     40 H           9.4864   -4.2935   -4.4843 H       1  UNL1        0.0293
     41 H           7.8943   -6.0946   -9.3139 H       1  UNL1        0.0907
     42 H           2.9375   -0.1881   -0.0966 H       1  UNL1        0.0599
     43 H           1.1302    0.3439   -0.3476 H       1  UNL1        0.0268
     44 H           2.1075    1.4270    0.6955 H       1  UNL1        0.0268
     45 H           0.5447    1.8924    0.0071 H       1  UNL1        0.0268
     46 H           4.1161    2.5090   -2.4316 H       1  UNL1        0.0268
     47 H           4.1329    1.9664   -0.7767 H       1  UNL1        0.0268
     48 H           3.9010    0.8873   -2.2777 H       1  UNL1        0.0268
     49 H           2.7479    4.0073   -2.0195 H       1  UNL1        0.0268
     50 H           1.2380    3.9240   -1.0936 H       1  UNL1        0.0268
     51 H           2.8063    3.6757   -0.2941 H       1  UNL1        0.0268
     52 H           2.9559   -2.6135   -3.1506 H       1  UNL1        0.0491
     53 H           1.2185   -2.4167   -3.0308 H       1  UNL1        0.0491
     54 H           1.0826   -3.0047   -0.7646 H       1  UNL1        0.0610
     55 H           2.9440   -4.5291   -2.0763 H       1  UNL1        0.2098
     56 H           2.4542   -2.0760    0.7798 H       1  UNL1        0.0313
     57 H           3.8712   -2.7786    0.1785 H       1  UNL1        0.0313
@<TRIPOS>BOND
     1     1     2    2
     2     2     3   am
     3     3     4    1
     4     4     5    1
     5     5     6   ar
     6     6     7    1
     7     6     8   ar
     8     8     9   ar
     9     9    10   ar
    10    10    11   ar
    11     5    11   ar
    12     9    12    1
    13    12    13   ar
    14    13    14    1
    15    13    15   ar
    16    15    16   ar
    17    16    17   ar
    18    12    17   ar
    19    18    19    1
    20    19    20   am
    21    20    21    1
    22    21    22    1
    23    22    23    1
    24    22    24    1
    25    22    25    1
    26    20    26    2
    27    19    27    1
    28    27    28    1
    29    28    29    1
    30    28    30    1
    31    18    30    1
    32     3    31    1
    33     4    32    1
    34     4    33    1
    35     7    34    1
    36     8    35    1
    37    10    36    1
    38    11    37    1
    39    14    38    1
    40    14    39    1
    41    14    40    1
    42    16    41    1
    43    23    43    1
    44    23    44    1
    45    23    45    1
    46    24    46    1
    47    24    47    1
    48    24    48    1
    49    25    49    1
    50    25    50    1
    51    25    51    1
    52    27    52    1
    53    27    53    1
    54    28    54    1
    55    29    55    1
    56    30    56    1
    57    30    57    1
    58    18    42    1
    59    18     2    1
