@<TRIPOS>MOLECULE
*****
 38 37 0 0 0
SMALL
GASTEIGER

@<TRIPOS>ATOM
      1 C           1.4215   -0.1060    0.1210 C.2     1  UNL1       -0.1005
      2 C           0.9161   -1.0713    1.0426 C.2     1  UNL1       -0.0658
      3 C          -0.5131   -1.3169    1.2268 C.3     1  UNL1        0.0657
      4 O          -1.2130   -2.3520    0.5234 O.3     1  UNL1       -0.3735
      5 C          -0.8197   -2.5174   -0.8531 C.3     1  UNL1        0.0714
      6 C          -1.0101   -1.3593   -1.9272 C.3     1  UNL1        0.0711
      7 O          -1.0489    0.0116   -1.5472 O.3     1  UNL1       -0.3752
      8 C          -1.9587    0.4616   -0.4941 C.3     1  UNL1        0.0711
      9 C          -3.3252    0.0333    0.1849 C.3     1  UNL1        0.0711
     10 O          -4.0862   -1.0781   -0.3880 O.3     1  UNL1       -0.3752
     11 C          -3.7830   -1.5854   -1.7103 C.3     1  UNL1        0.0711
     12 C          -3.7892   -0.5875   -3.1001 C.3     1  UNL1        0.0711
     13 O          -3.4836    0.8454   -3.0911 O.3     1  UNL1       -0.3752
     14 C          -4.0542    1.4830   -1.9717 C.3     1  UNL1        0.0708
     15 C          -5.4986    1.3738   -1.4704 C.3     1  UNL1        0.0676
     16 O          -6.0827    0.0744   -1.4622 O.3     1  UNL1       -0.3927
     17 H           0.8024    0.5421   -0.5012 H       1  UNL1        0.0532
     18 H           2.4520   -0.0151   -0.0480 H       1  UNL1        0.0532
     19 H           1.5189   -1.6874    1.6208 H       1  UNL1        0.0589
     20 H          -1.1387   -0.8569    2.0247 H       1  UNL1        0.0604
     21 H          -0.5325   -0.5458    0.5462 H       1  UNL1        0.0604
     22 H           0.2313   -2.7764   -0.8233 H       1  UNL1        0.0583
     23 H          -1.3417   -3.4305   -1.1928 H       1  UNL1        0.0583
     24 H          -0.5914   -1.6817   -2.9015 H       1  UNL1        0.0583
     25 H          -1.9246   -1.2908   -2.4300 H       1  UNL1        0.0583
     26 H          -1.8685   -0.3434    0.1264 H       1  UNL1        0.0583
     27 H          -1.4766    1.3356   -0.0334 H       1  UNL1        0.0583
     28 H          -3.4093   -0.0061    1.2835 H       1  UNL1        0.0583
     29 H          -3.8073    1.0051    0.2049 H       1  UNL1        0.0583
     30 H          -2.8945   -2.1116   -1.4349 H       1  UNL1        0.0583
     31 H          -4.2126   -2.5593   -2.0231 H       1  UNL1        0.0583
     32 H          -3.1698   -1.0046   -3.9055 H       1  UNL1        0.0583
     33 H          -4.7818   -0.6021   -3.5210 H       1  UNL1        0.0583
     34 H          -3.7728    0.6564   -1.4598 H       1  UNL1        0.0583
     35 H          -3.4542    2.2881   -1.4979 H       1  UNL1        0.0583
     36 H          -5.5487    1.6572   -0.4054 H       1  UNL1        0.0580
     37 H          -6.0836    2.0227   -2.0861 H       1  UNL1        0.0580
     38 H          -6.0008   -0.3214   -2.3348 H       1  UNL1        0.2095
@<TRIPOS>BOND
     1     1     2    2
     2     2     3    1
     3     3     4    1
     4     4     5    1
     5     5     6    1
     6     6     7    1
     7     7     8    1
     8     8     9    1
     9     9    10    1
    10    10    11    1
    11    11    12    1
    12    12    13    1
    13    13    14    1
    14    14    15    1
    15    15    16    1
    16     1    17    1
    17     1    18    1
    18     2    19    1
    19     3    20    1
    20     3    21    1
    21     5    22    1
    22     5    23    1
    23     6    24    1
    24     6    25    1
    25     8    26    1
    26     8    27    1
    27     9    28    1
    28     9    29    1
    29    11    30    1
    30    11    31    1
    31    12    32    1
    32    12    33    1
    33    14    34    1
    34    14    35    1
    35    15    36    1
    36    15    37    1
    37    16    38    1
