@<TRIPOS>MOLECULE
*****
 97 100 0 0 0
SMALL
GASTEIGER

@<TRIPOS>ATOM
      1 C          -2.5510   -7.4980    5.7163 C.3     1  UNL1       -0.0212
      2 C          -1.4225   -8.3140    6.2424 C.ar    1  UNL1        0.0531
      3 C          -0.1602   -8.6381    5.7201 C.ar    1  UNL1        0.0418
      4 S           0.6722   -9.6667    6.8172 S.2     1  UNL1       -0.0752
      5 C          -0.6312   -9.5401    7.8959 C.ar    1  UNL1        0.0655
      6 N          -1.6591   -8.8314    7.5069 N.ar    1  UNL1       -0.2520
      7 C           0.5977   -8.3190    4.5082 C.ar    1  UNL1       -0.0061
      8 C           0.5916   -9.1982    3.4596 C.ar    1  UNL1       -0.0529
      9 C           1.0695   -8.7508    2.2344 C.ar    1  UNL1       -0.0530
     10 C           1.5704   -7.4502    1.9199 C.ar    1  UNL1        0.0113
     11 C           1.7857   -7.0418    0.4520 C.3     1  UNL1        0.0403
     12 N           3.1268   -7.4658    0.0286 N.am    1  UNL1       -0.3095
     13 C           3.3062   -8.0468   -1.2000 C.2     1  UNL1        0.2339
     14 C           4.4647   -9.0621   -1.5147 C.3     1  UNL1        0.1047
     15 C           5.8262   -8.5181   -1.8953 C.3     1  UNL1        0.0018
     16 C           6.2716   -9.5018   -2.9821 C.3     1  UNL1        0.0731
     17 O           6.8175  -10.6953   -2.3989 O.3     1  UNL1       -0.3902
     18 C           4.9765   -9.8239   -3.7347 C.3     1  UNL1        0.0416
     19 N           3.9667   -9.8350   -2.6855 N.am    1  UNL1       -0.2858
     20 C           2.6802  -10.3807   -2.8969 C.2     1  UNL1        0.2371
     21 C           1.6334  -10.5049   -1.6972 C.3     1  UNL1        0.1045
     22 C           2.1941  -11.3552   -0.5198 C.3     1  UNL1       -0.0108
     23 C           3.2048  -12.3610   -1.0264 C.3     1  UNL1       -0.0579
     24 C           2.8794  -10.5172    0.5377 C.3     1  UNL1       -0.0579
     25 C           1.0459  -12.0364    0.2251 C.3     1  UNL1       -0.0579
     26 N           0.3241  -10.9981   -2.1831 N.am    1  UNL1       -0.3009
     27 C          -0.7995  -10.1889   -2.1174 C.2     1  UNL1        0.2508
     28 C          -2.1355  -10.7660   -2.4698 C.3     1  UNL1        0.1868
     29 F          -3.1560  -10.2536   -1.6619 F       1  UNL1       -0.2320
     30 C          -2.4790  -11.0255   -3.9243 C.3     1  UNL1       -0.0068
     31 C          -2.4354  -12.1687   -2.9457 C.3     1  UNL1       -0.0068
     32 O          -0.7689   -9.0378   -1.6919 O.2     1  UNL1       -0.2723
     33 O           2.3875  -10.8744   -3.9950 O.2     1  UNL1       -0.2735
     34 O           2.4194   -7.8784   -2.0451 O.2     1  UNL1       -0.2738
     35 C           1.6763   -6.5693    3.0183 C.ar    1  UNL1        0.1259
     36 O           1.5381   -5.1743    2.6993 O.3     1  UNL1       -0.4893
     37 C           0.9616   -4.2228    3.7037 C.3     1  UNL1        0.1128
     38 C          -0.5375   -4.2829    4.3645 C.3     1  UNL1        0.0818
     39 O          -1.1779   -5.5330    4.3967 O.3     1  UNL1       -0.3742
     40 C          -1.0811   -6.2599    3.1591 C.3     1  UNL1        0.0711
     41 C          -1.1446   -6.0269    1.6234 C.3     1  UNL1        0.0711
     42 O          -1.0860   -4.7805    0.9615 O.3     1  UNL1       -0.3752
     43 C          -1.6621   -3.8095    1.8263 C.3     1  UNL1        0.0711
     44 C          -3.1293   -4.0340    2.5719 C.3     1  UNL1        0.0717
     45 O          -3.5701   -5.2529    3.2526 O.3     1  UNL1       -0.3664
     46 C          -3.7709   -6.4023    2.4379 C.3     1  UNL1        0.1444
     47 C          -4.2212   -6.1725    0.9741 C.2     1  UNL1        0.3308
     48 O          -3.4230   -5.9020   -0.0815 O.3     1  UNL1       -0.4790
     49 O          -5.4754   -6.0934    0.7678 O.2     1  UNL1       -0.2484
     50 C           1.2199   -7.0561    4.3113 C.ar    1  UNL1       -0.0113
     51 H          -3.4944   -8.0438    5.6576 H       1  UNL1        0.0293
     52 H          -2.6831   -6.5677    6.2816 H       1  UNL1        0.0293
     53 H          -2.4129   -7.2409    4.6950 H       1  UNL1        0.0293
     54 H          -0.6007  -10.0298    8.8532 H       1  UNL1        0.0907
     55 H           0.1631  -10.1992    3.5154 H       1  UNL1        0.0624
     56 H           0.9621   -9.5488    1.5311 H       1  UNL1        0.0622
     57 H           0.9993   -7.4689   -0.2063 H       1  UNL1        0.0513
     58 H           1.6952   -5.9613    0.2883 H       1  UNL1        0.0513
     59 H           3.8622   -7.3060    0.6963 H       1  UNL1        0.1491
     60 H           4.8305   -9.7783   -0.7840 H       1  UNL1        0.0597
     61 H           6.5123   -8.5405   -1.0324 H       1  UNL1        0.0313
     62 H           5.7206   -7.4950   -2.2437 H       1  UNL1        0.0313
     63 H           7.0517   -9.0678   -3.6077 H       1  UNL1        0.0610
     64 H           6.0969  -11.2120   -1.9961 H       1  UNL1        0.2098
     65 H           4.7228   -9.0210   -4.4325 H       1  UNL1        0.0490
     66 H           5.0054  -10.7855   -4.2540 H       1  UNL1        0.0490
     67 H           1.3558   -9.5511   -1.2664 H       1  UNL1        0.0600
     68 H           4.0614  -11.8712   -1.4911 H       1  UNL1        0.0236
     69 H           3.6210  -12.9357   -0.2023 H       1  UNL1        0.0236
     70 H           2.7416  -13.0046   -1.7740 H       1  UNL1        0.0236
     71 H           2.3204   -9.6241    0.6231 H       1  UNL1        0.0236
     72 H           3.1649  -11.0088    1.4634 H       1  UNL1        0.0236
     73 H           3.7733  -10.0206    0.3217 H       1  UNL1        0.0236
     74 H           0.3235  -11.2973    0.5947 H       1  UNL1        0.0236
     75 H           0.5152  -12.7273   -0.4293 H       1  UNL1        0.0236
     76 H           1.4305  -12.5933    1.0816 H       1  UNL1        0.0236
     77 H           0.2718  -11.9341   -2.5552 H       1  UNL1        0.1496
     78 H          -3.4379  -10.7159   -4.3279 H       1  UNL1        0.0302
     79 H          -1.6947  -10.9313   -4.6684 H       1  UNL1        0.0302
     80 H          -1.6686  -12.9237   -3.0308 H       1  UNL1        0.0302
     81 H          -3.3823  -12.6076   -2.6348 H       1  UNL1        0.0302
     82 H           1.6621   -4.2732    4.5220 H       1  UNL1        0.0720
     83 H           1.0476   -3.2331    3.2244 H       1  UNL1        0.0720
     84 H          -0.6972   -3.5134    5.1371 H       1  UNL1        0.0594
     85 H          -1.3732   -3.8321    3.8870 H       1  UNL1        0.0594
     86 H          -0.1187   -6.0472    3.0522 H       1  UNL1        0.0583
     87 H          -1.1913   -7.3309    3.3458 H       1  UNL1        0.0583
     88 H          -0.8866   -6.9348    1.0508 H       1  UNL1        0.0583
     89 H          -2.1316   -6.0802    1.4128 H       1  UNL1        0.0583
     90 H          -0.7863   -3.8236    2.4156 H       1  UNL1        0.0583
     91 H          -1.5083   -2.7503    1.5956 H       1  UNL1        0.0583
     92 H          -3.2317   -3.2677    3.3641 H       1  UNL1        0.0583
     93 H          -3.8896   -3.8002    1.8377 H       1  UNL1        0.0583
     94 H          -2.8474   -6.9121    2.5219 H       1  UNL1        0.0676
     95 H          -4.0846   -7.3652    2.8857 H       1  UNL1        0.0676
     96 H          -2.4384   -5.7772   -0.1651 H       1  UNL1        0.2951
     97 H           0.8865   -6.3354    5.0568 H       1  UNL1        0.0660
@<TRIPOS>BOND
     1     1     2    1
     2     2     3   ar
     3     3     4   ar
     4     4     5   ar
     5     5     6   ar
     6     2     6   ar
     7     3     7    1
     8     7     8   ar
     9     8     9   ar
    10     9    10   ar
    11    10    11    1
    12    11    12    1
    13    12    13   am
    14    14    15    1
    15    15    16    1
    16    16    17    1
    17    16    18    1
    18    18    19    1
    19    14    19    1
    20    19    20   am
    21    22    23    1
    22    22    24    1
    23    22    25    1
    24    21    26    1
    25    26    27   am
    26    27    28    1
    27    28    29    1
    28    28    30    1
    29    30    31    1
    30    28    31    1
    31    27    32    2
    32    20    33    2
    33    13    34    2
    34    10    35   ar
    35    35    36    1
    36    36    37    1
    37    37    38    1
    38    38    39    1
    39    39    40    1
    40    40    41    1
    41    41    42    1
    42    42    43    1
    43    43    44    1
    44    44    45    1
    45    45    46    1
    46    46    47    1
    47    47    48    1
    48    47    49    2
    49    35    50   ar
    50     7    50   ar
    51     1    51    1
    52     1    52    1
    53     1    53    1
    54     5    54    1
    55     8    55    1
    56     9    56    1
    57    11    57    1
    58    11    58    1
    59    12    59    1
    60    15    61    1
    61    15    62    1
    62    16    63    1
    63    17    64    1
    64    18    65    1
    65    18    66    1
    66    21    67    1
    67    23    68    1
    68    23    69    1
    69    23    70    1
    70    24    71    1
    71    24    72    1
    72    24    73    1
    73    25    74    1
    74    25    75    1
    75    25    76    1
    76    26    77    1
    77    30    78    1
    78    30    79    1
    79    31    80    1
    80    31    81    1
    81    37    82    1
    82    37    83    1
    83    38    84    1
    84    38    85    1
    85    40    86    1
    86    40    87    1
    87    41    88    1
    88    41    89    1
    89    43    90    1
    90    43    91    1
    91    44    92    1
    92    44    93    1
    93    46    94    1
    94    46    95    1
    95    48    96    1
    96    50    97    1
    97    21    22    1
    98    21    20    1
    99    14    60    1
   100    14    13    1
