@<TRIPOS>MOLECULE
*****
 82 85 0 0 0
SMALL
GASTEIGER

@<TRIPOS>ATOM
      1 C          -2.5670   -7.5119    5.7592 C.3     1  UNL1       -0.0212
      2 C          -1.4195   -8.3087    6.2783 C.ar    1  UNL1        0.0531
      3 C          -0.1529   -8.6048    5.7571 C.ar    1  UNL1        0.0418
      4 S           0.6822   -9.6555    6.8406 S.2     1  UNL1       -0.0752
      5 C          -0.6248   -9.5568    7.9239 C.ar    1  UNL1        0.0655
      6 N          -1.6556   -8.8520    7.5344 N.ar    1  UNL1       -0.2520
      7 C           0.5626   -8.2553    4.5270 C.ar    1  UNL1       -0.0061
      8 C           0.5905   -9.1631    3.4842 C.ar    1  UNL1       -0.0529
      9 C           1.0152   -8.7327    2.2310 C.ar    1  UNL1       -0.0530
     10 C           1.5226   -7.4385    1.9494 C.ar    1  UNL1        0.0113
     11 C           1.8133   -7.0406    0.4972 C.3     1  UNL1        0.0403
     12 N           3.1408   -7.4978    0.0529 N.am    1  UNL1       -0.3095
     13 C           3.3182   -7.9577   -1.2346 C.2     1  UNL1        0.2339
     14 C           4.4355   -9.0002   -1.5620 C.3     1  UNL1        0.1047
     15 C           5.8129   -8.4717   -1.9406 C.3     1  UNL1        0.0018
     16 C           6.2661   -9.4765   -3.0040 C.3     1  UNL1        0.0731
     17 O           6.8203  -10.6422   -2.3762 O.3     1  UNL1       -0.3902
     18 C           4.9706   -9.8136   -3.7508 C.3     1  UNL1        0.0416
     19 N           3.9531   -9.7955   -2.7110 N.am    1  UNL1       -0.2858
     20 C           2.6960  -10.3843   -2.9029 C.2     1  UNL1        0.2371
     21 C           1.6646  -10.5169   -1.7016 C.3     1  UNL1        0.1045
     22 C           2.2067  -11.3984   -0.5133 C.3     1  UNL1       -0.0108
     23 C           3.2097  -12.4306   -1.0132 C.3     1  UNL1       -0.0579
     24 C           2.8933  -10.5771    0.5763 C.3     1  UNL1       -0.0579
     25 C           1.0405  -12.0862    0.2242 C.3     1  UNL1       -0.0579
     26 N           0.3370  -10.9973   -2.1839 N.am    1  UNL1       -0.3009
     27 C          -0.7942  -10.1962   -2.1092 C.2     1  UNL1        0.2508
     28 C          -2.1369  -10.7716   -2.4698 C.3     1  UNL1        0.1868
     29 F          -3.1929  -10.2650   -1.7030 F       1  UNL1       -0.2320
     30 C          -2.4684  -11.0299   -3.9223 C.3     1  UNL1       -0.0068
     31 C          -2.4153  -12.1730   -2.9510 C.3     1  UNL1       -0.0068
     32 O          -0.7530   -9.0381   -1.6962 O.2     1  UNL1       -0.2723
     33 O           2.4161  -10.8913   -3.9975 O.2     1  UNL1       -0.2735
     34 O           2.4884   -7.6660   -2.1012 O.2     1  UNL1       -0.2738
     35 C           1.5160   -6.5235    3.0243 C.ar    1  UNL1        0.1259
     36 O           1.4792   -5.1778    2.6523 O.3     1  UNL1       -0.4893
     37 C           0.8602   -4.2071    3.5376 C.3     1  UNL1        0.1129
     38 C          -0.7015   -4.1340    3.6932 C.3     1  UNL1        0.0822
     39 O          -1.3774   -5.3355    4.0644 O.3     1  UNL1       -0.3692
     40 C          -1.4028   -6.2414    2.9903 C.3     1  UNL1        0.1028
     41 C          -2.1095   -6.1407    1.6950 C.2     1  UNL1        0.1458
     42 H          -1.4236   -6.0840    0.8335 H       1  UNL1        0.1051
     43 O          -3.3444   -6.1789    1.5762 O.2     1  UNL1       -0.2986
     44 C           1.0788   -6.9604    4.3077 C.ar    1  UNL1       -0.0113
     45 H          -3.5011   -8.0807    5.7868 H       1  UNL1        0.0293
     46 H          -2.6914   -6.5860    6.3294 H       1  UNL1        0.0293
     47 H          -2.4940   -7.2468    4.7283 H       1  UNL1        0.0293
     48 H          -0.6041  -10.0528    8.8814 H       1  UNL1        0.0907
     49 H           0.1771  -10.1672    3.5809 H       1  UNL1        0.0624
     50 H           0.8055   -9.4494    1.4488 H       1  UNL1        0.0622
     51 H           1.0316   -7.4742   -0.1490 H       1  UNL1        0.0513
     52 H           1.7428   -5.9606    0.3294 H       1  UNL1        0.0513
     53 H           3.9098   -7.3748    0.6943 H       1  UNL1        0.1491
     54 H           4.7344   -9.7219   -0.8260 H       1  UNL1        0.0597
     55 H           6.4875   -8.4846   -1.0706 H       1  UNL1        0.0313
     56 H           5.7412   -7.4524   -2.3170 H       1  UNL1        0.0313
     57 H           7.0439   -9.0643   -3.6490 H       1  UNL1        0.0610
     58 H           6.0954  -11.1966   -2.0368 H       1  UNL1        0.2098
     59 H           4.7139   -9.0221   -4.4591 H       1  UNL1        0.0490
     60 H           4.9964  -10.7858   -4.2511 H       1  UNL1        0.0490
     61 H           1.4390   -9.5334   -1.3038 H       1  UNL1        0.0600
     62 H           4.0820  -11.9542   -1.4675 H       1  UNL1        0.0236
     63 H           3.5995  -13.0276   -0.1873 H       1  UNL1        0.0236
     64 H           2.7540  -13.0785   -1.7645 H       1  UNL1        0.0236
     65 H           2.3533   -9.6646    0.6609 H       1  UNL1        0.0236
     66 H           3.0090  -11.0843    1.5327 H       1  UNL1        0.0236
     67 H           3.8806  -10.2115    0.4299 H       1  UNL1        0.0236
     68 H           0.3132  -11.3491    0.5862 H       1  UNL1        0.0236
     69 H           0.5091  -12.7912   -0.4171 H       1  UNL1        0.0236
     70 H           1.4061  -12.6367    1.0966 H       1  UNL1        0.0236
     71 H           0.2855  -11.9138   -2.6061 H       1  UNL1        0.1496
     72 H          -3.4390  -10.7093   -4.2845 H       1  UNL1        0.0302
     73 H          -1.6754  -10.9394   -4.6547 H       1  UNL1        0.0302
     74 H          -1.6225  -12.8979   -3.0421 H       1  UNL1        0.0302
     75 H          -3.3646  -12.6041   -2.6411 H       1  UNL1        0.0302
     76 H           1.3548   -4.2655    4.5083 H       1  UNL1        0.0720
     77 H           1.1332   -3.2313    3.1155 H       1  UNL1        0.0720
     78 H          -0.9272   -3.4001    4.4787 H       1  UNL1        0.0594
     79 H          -1.1844   -3.7720    2.7810 H       1  UNL1        0.0594
     80 H          -0.4514   -6.1440    2.5527 H       1  UNL1        0.0636
     81 H          -1.4260   -7.2863    3.3021 H       1  UNL1        0.0636
     82 H           0.8681   -6.2371    5.0886 H       1  UNL1        0.0660
@<TRIPOS>BOND
     1     1     2    1
     2     2     3   ar
     3     3     4   ar
     4     4     5   ar
     5     5     6   ar
     6     2     6   ar
     7     3     7    1
     8     7     8   ar
     9     8     9   ar
    10     9    10   ar
    11    10    11    1
    12    11    12    1
    13    12    13   am
    14    14    15    1
    15    15    16    1
    16    16    17    1
    17    16    18    1
    18    18    19    1
    19    14    19    1
    20    19    20   am
    21    22    23    1
    22    22    24    1
    23    22    25    1
    24    21    26    1
    25    26    27   am
    26    27    28    1
    27    28    29    1
    28    28    30    1
    29    30    31    1
    30    28    31    1
    31    27    32    2
    32    20    33    2
    33    13    34    2
    34    10    35   ar
    35    35    36    1
    36    36    37    1
    37    37    38    1
    38    38    39    1
    39    39    40    1
    40    40    41    1
    41    41    42    1
    42    41    43    2
    43    35    44   ar
    44     7    44   ar
    45     1    45    1
    46     1    46    1
    47     1    47    1
    48     5    48    1
    49     8    49    1
    50     9    50    1
    51    11    51    1
    52    11    52    1
    53    12    53    1
    54    15    55    1
    55    15    56    1
    56    16    57    1
    57    17    58    1
    58    18    59    1
    59    18    60    1
    60    21    61    1
    61    23    62    1
    62    23    63    1
    63    23    64    1
    64    24    65    1
    65    24    66    1
    66    24    67    1
    67    25    68    1
    68    25    69    1
    69    25    70    1
    70    26    71    1
    71    30    72    1
    72    30    73    1
    73    31    74    1
    74    31    75    1
    75    37    76    1
    76    37    77    1
    77    38    78    1
    78    38    79    1
    79    40    80    1
    80    40    81    1
    81    44    82    1
    82    21    22    1
    83    21    20    1
    84    14    54    1
    85    14    13    1
