@<TRIPOS>MOLECULE
*****
 52 55 0 0 0
SMALL
GASTEIGER

@<TRIPOS>ATOM
      1 C           0.8923   -0.0758   -0.0036 C.3     1  UNL1        0.0788
      2 O           0.3044   -0.5107    1.2159 O.3     1  UNL1       -0.4948
      3 C           0.7678   -1.6743    1.7609 C.ar    1  UNL1        0.1253
      4 C          -0.1149   -2.4160    2.5486 C.ar    1  UNL1        0.0117
      5 C          -1.6162   -2.2703    2.3926 C.3     1  UNL1        0.0277
      6 N          -2.3713   -3.4253    1.8593 N.3     1  UNL1       -0.2950
      7 C          -1.7163   -4.2058    0.7742 C.3     1  UNL1        0.0157
      8 C          -2.3594   -5.4727    1.4140 C.3     1  UNL1        0.0306
      9 N          -1.4112   -6.5950    1.4714 N.3     1  UNL1       -0.3251
     10 C          -2.3607   -4.6423    2.7115 C.3     1  UNL1        0.0157
     11 C           0.4040   -3.4136    3.3977 C.ar    1  UNL1       -0.0115
     12 C           1.6817   -3.9341    3.2494 C.ar    1  UNL1        0.1284
     13 O           1.8557   -5.0951    3.9569 O.3     1  UNL1       -0.4945
     14 C           3.0911   -5.7937    4.0120 C.3     1  UNL1        0.0788
     15 C           2.5284   -3.2391    2.3856 C.ar    1  UNL1        0.0292
     16 C           3.9174   -3.6104    2.1666 C.ar    1  UNL1        0.0099
     17 C           4.8417   -2.8123    2.7270 C.ar    1  UNL1        0.0160
     18 N           6.1772   -3.1373    2.7375 N.ar    1  UNL1       -0.3171
     19 C           6.6591   -4.3667    2.2674 C.ar    1  UNL1        0.2603
     20 C           5.6590   -5.2525    1.6302 C.ar    1  UNL1        0.0653
     21 C           5.9783   -6.5281    1.2097 C.ar    1  UNL1        0.0405
     22 N           5.1104   -7.3428    0.5511 N.ar    1  UNL1       -0.2625
     23 C           3.8566   -6.8850    0.3592 C.ar    1  UNL1        0.0282
     24 C           3.4139   -5.6805    0.8604 C.ar    1  UNL1       -0.0351
     25 C           4.3447   -4.8337    1.4829 C.ar    1  UNL1       -0.0006
     26 O           7.8237   -4.7162    2.3341 O.2     1  UNL1       -0.2670
     27 C           7.1370   -2.1881    3.2650 C.3     1  UNL1        0.0147
     28 C           2.0833   -2.0997    1.6773 C.ar    1  UNL1       -0.0084
     29 H           0.5174    0.9314   -0.2122 H       1  UNL1        0.0660
     30 H           0.5728   -0.7365   -0.8133 H       1  UNL1        0.0660
     31 H           1.9825    0.0002    0.0323 H       1  UNL1        0.0660
     32 H          -2.0462   -1.9636    3.3530 H       1  UNL1        0.0477
     33 H          -1.8344   -1.4340    1.7136 H       1  UNL1        0.0477
     34 H          -2.0824   -3.9993   -0.2372 H       1  UNL1        0.0442
     35 H          -0.6204   -4.1851    0.7390 H       1  UNL1        0.0442
     36 H          -3.3649   -5.7377    1.0819 H       1  UNL1        0.0483
     37 H          -1.3714   -7.1256    0.6025 H       1  UNL1        0.1185
     38 H          -0.4496   -6.3738    1.7277 H       1  UNL1        0.1185
     39 H          -1.4980   -4.8573    3.3305 H       1  UNL1        0.0442
     40 H          -3.2340   -4.7393    3.3606 H       1  UNL1        0.0442
     41 H          -0.2216   -3.8482    4.1698 H       1  UNL1        0.0658
     42 H           3.3037   -6.3107    3.0844 H       1  UNL1        0.0660
     43 H           3.9078   -5.1448    4.3321 H       1  UNL1        0.0660
     44 H           3.0232   -6.6326    4.7090 H       1  UNL1        0.0660
     45 H           4.5609   -1.8863    3.2295 H       1  UNL1        0.0816
     46 H           6.9551   -6.9560    1.4126 H       1  UNL1        0.0837
     47 H           3.1770   -7.5405   -0.1765 H       1  UNL1        0.0830
     48 H           2.3426   -5.4961    0.9106 H       1  UNL1        0.0639
     49 H           7.6783   -2.6442    4.0978 H       1  UNL1        0.0457
     50 H           7.8429   -1.9465    2.4652 H       1  UNL1        0.0457
     51 H           6.6498   -1.2673    3.6020 H       1  UNL1        0.0457
     52 H           2.8013   -1.5693    1.0602 H       1  UNL1        0.0661
@<TRIPOS>BOND
     1     1     2    1
     2     2     3    1
     3     3     4   ar
     4     4     5    1
     5     5     6    1
     6     6     7    1
     7     7     8    1
     8     8     9    1
     9     8    10    1
    10     6    10    1
    11     4    11   ar
    12    11    12   ar
    13    12    13    1
    14    13    14    1
    15    12    15   ar
    16    15    16    1
    17    16    17   ar
    18    17    18   ar
    19    18    19   ar
    20    19    20   ar
    21    20    21   ar
    22    21    22   ar
    23    22    23   ar
    24    23    24   ar
    25    24    25   ar
    26    20    25   ar
    27    16    25   ar
    28    19    26    2
    29    18    27    1
    30    15    28   ar
    31     3    28   ar
    32     1    29    1
    33     1    30    1
    34     1    31    1
    35     5    32    1
    36     5    33    1
    37     7    34    1
    38     7    35    1
    39     8    36    1
    40     9    37    1
    41     9    38    1
    42    10    39    1
    43    10    40    1
    44    11    41    1
    45    14    42    1
    46    14    43    1
    47    14    44    1
    48    17    45    1
    49    21    46    1
    50    23    47    1
    51    24    48    1
    52    27    49    1
    53    27    50    1
    54    27    51    1
    55    28    52    1
