@<TRIPOS>MOLECULE
*****
 132 138 0 0 0
SMALL
GASTEIGER

@<TRIPOS>ATOM
      1 C          -1.0040    0.1751   -2.9187 C.3     1  UNL1       -0.0579
      2 C           0.3314    0.9117   -2.8010 C.3     1  UNL1       -0.0108
      3 C           0.6168    1.7885   -3.9691 C.3     1  UNL1       -0.0579
      4 C           0.3736    2.0128   -1.7888 C.3     1  UNL1       -0.0579
      5 C           1.0858   -0.3621   -2.3770 C.3     1  UNL1        0.1045
      6 N           0.5518   -0.7512   -0.8890 N.am    1  UNL1       -0.3016
      7 C          -0.0525    0.1583    0.1889 C.2     1  UNL1        0.2394
      8 C          -0.3860   -0.1348    1.5952 C.3     1  UNL1        0.1237
      9 O           0.6740    0.2801    2.3888 O.3     1  UNL1       -0.3683
     10 C           1.8755   -0.3601    1.9258 C.3     1  UNL1        0.0716
     11 C           2.0297   -1.8963    1.8630 C.3     1  UNL1        0.0711
     12 O           1.2803   -2.7524    0.9561 O.3     1  UNL1       -0.3762
     13 C          -0.1181   -2.7418    1.1443 C.3     1  UNL1        0.0605
     14 C          -0.6419   -2.9809    2.5373 C.3     1  UNL1        0.0224
     15 N           0.1271   -2.3625    3.5475 N.3     1  UNL1       -0.2977
     16 C          -0.8509   -1.5681    4.1829 C.3     1  UNL1        0.0118
     17 C          -1.8930   -2.6195    5.2696 C.3     1  UNL1        0.0120
     18 N          -0.9033   -3.3487    6.2730 N.3     1  UNL1       -0.2955
     19 C          -0.0088   -2.4144    7.2874 C.3     1  UNL1        0.0311
     20 C           1.0657   -1.4036    6.8290 C.ar    1  UNL1        0.0498
     21 C           2.3791   -1.7536    6.8831 C.ar    1  UNL1        0.1285
     22 O           3.0569   -2.8211    7.4021 O.3     1  UNL1       -0.4947
     23 C           2.3022   -3.9548    7.7819 C.3     1  UNL1        0.0788
     24 C           3.1226   -0.8601    6.1564 C.ar    1  UNL1       -0.0116
     25 C           2.6184    0.2167    5.1032 C.ar    1  UNL1       -0.0090
     26 C           3.3278    1.5829    4.2179 C.ar    1  UNL1        0.0065
     27 C           4.5579    1.2806    3.6615 C.ar    1  UNL1       -0.0007
     28 C           6.1825    1.9772    4.1471 C.ar    1  UNL1        0.0653
     29 C           7.7079    1.2011    3.6598 C.ar    1  UNL1        0.0405
     30 N           7.8718   -0.3120    3.0031 N.ar    1  UNL1       -0.2625
     31 C           6.5032   -1.0128    2.7101 C.ar    1  UNL1        0.0282
     32 C           4.6469   -0.3370    2.9403 C.ar    1  UNL1       -0.0351
     33 C           3.4927    2.9372    4.4584 C.ar    1  UNL1        0.0159
     34 N           4.7413    3.6971    4.4460 N.ar    1  UNL1       -0.3171
     35 C           4.7078    5.0428    4.8396 C.3     1  UNL1        0.0147
     36 C           6.0125    3.3490    4.0392 C.ar    1  UNL1        0.2603
     37 O           6.9219    3.9889    3.5370 O.2     1  UNL1       -0.2670
     38 C           1.3717    0.5732    5.2382 C.ar    1  UNL1       -0.0116
     39 C           0.6805   -0.0836    6.2110 C.ar    1  UNL1        0.1285
     40 O          -0.5796    0.4874    6.1166 O.3     1  UNL1       -0.4947
     41 C          -1.4632   -0.5345    6.2086 C.3     1  UNL1        0.0788
     42 C           0.0058   -4.0255    5.3393 C.3     1  UNL1        0.0120
     43 C           0.9146   -3.1969    4.4561 C.3     1  UNL1        0.0118
     44 O          -0.3088    1.3787    0.2475 O.2     1  UNL1       -0.2733
     45 C           2.5943   -0.4088   -2.4165 C.2     1  UNL1        0.2371
     46 N           3.1806   -1.2575   -3.3548 N.am    1  UNL1       -0.2858
     47 C           4.2849   -2.1578   -2.9837 C.3     1  UNL1        0.1047
     48 C           5.4232   -1.4780   -2.2457 C.2     1  UNL1        0.2339
     49 N           5.8295   -2.1300   -1.1028 N.am    1  UNL1       -0.3097
     50 C           6.6750   -1.3911   -0.2489 C.3     1  UNL1        0.0369
     51 C           5.5936   -0.9318    0.7841 C.ar    1  UNL1       -0.0303
     52 C           5.8833    0.5190    1.0286 C.ar    1  UNL1       -0.0565
     53 C           6.0518    0.8049    2.5163 C.ar    1  UNL1       -0.0532
     54 C           5.8791   -0.1853    4.2333 C.ar    1  UNL1       -0.0095
     55 C           5.3574    0.6449    5.8251 C.ar    1  UNL1        0.0417
     56 C           5.8835    0.3356    7.0119 C.ar    1  UNL1        0.0531
     57 C           6.6761   -0.8717    6.8844 C.3     1  UNL1       -0.0212
     58 N           5.3136    0.9197    8.1829 N.ar    1  UNL1       -0.2520
     59 C           4.6654    2.0260    7.9438 C.ar    1  UNL1        0.0655
     60 S           3.8240    1.7082    6.6501 S.2     1  UNL1       -0.0752
     61 C           5.2909   -1.9596    3.8694 C.ar    1  UNL1       -0.0532
     62 C           5.0877   -2.2051    1.9999 C.ar    1  UNL1       -0.0565
     63 O           5.9935   -0.4829   -2.6846 O.2     1  UNL1       -0.2738
     64 C           4.8000   -2.6999   -4.3327 C.3     1  UNL1        0.0018
     65 C           3.5641   -2.6591   -5.2241 C.3     1  UNL1        0.0731
     66 O           2.7107   -3.7744   -4.9549 O.3     1  UNL1       -0.3902
     67 C           2.8645   -1.3689   -4.7906 C.3     1  UNL1        0.0416
     68 O           3.2168    0.1445   -1.5157 O.2     1  UNL1       -0.2735
     69 H          -1.8523    0.8244   -2.9687 H       1  UNL1        0.0236
     70 H          -1.2067   -0.5051   -2.0736 H       1  UNL1        0.0236
     71 H          -0.9138   -0.4895   -3.7864 H       1  UNL1        0.0236
     72 H          -0.2516    2.4667   -4.0506 H       1  UNL1        0.0236
     73 H           1.4894    2.4383   -3.7898 H       1  UNL1        0.0236
     74 H           0.7328    1.2066   -4.8629 H       1  UNL1        0.0236
     75 H           0.7380    1.3037   -1.1356 H       1  UNL1        0.0236
     76 H           1.2176    2.6140   -1.4334 H       1  UNL1        0.0236
     77 H          -0.6045    2.4532   -1.5392 H       1  UNL1        0.0236
     78 H           0.7807   -1.2061   -3.0427 H       1  UNL1        0.0600
     79 H           0.5452   -1.7766   -0.8603 H       1  UNL1        0.1495
     80 H          -1.4521    0.1353    1.6903 H       1  UNL1        0.0656
     81 H          -0.6103   -1.0027    2.0773 H       1  UNL1        0.0656
     82 H           2.2085    0.0630    0.9871 H       1  UNL1        0.0583
     83 H           2.5473    0.0062    2.6575 H       1  UNL1        0.0583
     84 H           3.0381   -2.1714    1.6602 H       1  UNL1        0.0583
     85 H           2.0351   -2.2541    2.8660 H       1  UNL1        0.0583
     86 H          -0.2236   -1.8063    0.7073 H       1  UNL1        0.0572
     87 H          -0.9376   -2.9382    0.4400 H       1  UNL1        0.0572
     88 H          -1.6702   -2.5631    2.6259 H       1  UNL1        0.0449
     89 H          -0.6518   -4.0149    2.7515 H       1  UNL1        0.0449
     90 H           0.0167   -1.0830    4.5730 H       1  UNL1        0.0439
     91 H          -1.2629   -0.5760    3.8249 H       1  UNL1        0.0439
     92 H          -2.4978   -3.1314    4.5125 H       1  UNL1        0.0439
     93 H          -2.7047   -2.2007    5.9857 H       1  UNL1        0.0439
     94 H          -0.5175   -1.8542    8.0764 H       1  UNL1        0.0478
     95 H           0.3984   -3.1500    7.8987 H       1  UNL1        0.0478
     96 H           1.6937   -3.7387    8.6597 H       1  UNL1        0.0660
     97 H           1.7733   -4.3159    6.9173 H       1  UNL1        0.0660
     98 H           2.8660   -4.8116    8.1185 H       1  UNL1        0.0660
     99 H           4.0710   -0.8559    6.6986 H       1  UNL1        0.0660
    100 H           8.2496    1.8187    2.8852 H       1  UNL1        0.0837
    101 H           6.7722   -2.2787    2.7924 H       1  UNL1        0.0830
    102 H           3.9763   -0.8135    4.0237 H       1  UNL1        0.0639
    103 H           2.8356    3.4330    5.1622 H       1  UNL1        0.0816
    104 H           5.6088    5.2854    5.4194 H       1  UNL1        0.0457
    105 H           4.6900    5.5391    3.8776 H       1  UNL1        0.0457
    106 H           3.8205    5.2012    5.4383 H       1  UNL1        0.0457
    107 H           1.0256    1.3727    4.6167 H       1  UNL1        0.0660
    108 H          -0.8214   -1.3587    5.9727 H       1  UNL1        0.0660
    109 H          -1.7177   -0.8802    7.1787 H       1  UNL1        0.0660
    110 H          -2.3220   -0.4879    5.5028 H       1  UNL1        0.0660
    111 H          -0.6447   -4.5438    4.6493 H       1  UNL1        0.0439
    112 H           0.5619   -4.8209    5.8010 H       1  UNL1        0.0439
    113 H           1.5784   -3.8294    3.8690 H       1  UNL1        0.0439
    114 H           1.6872   -2.6404    4.9845 H       1  UNL1        0.0439
    115 H           3.8784   -2.9827   -2.3826 H       1  UNL1        0.0597
    116 H           5.1986   -2.7482   -0.6003 H       1  UNL1        0.1491
    117 H           7.4735   -2.0379    0.1638 H       1  UNL1        0.0512
    118 H           7.2163   -0.5391   -0.7289 H       1  UNL1        0.0512
    119 H           6.2717    1.3331    0.4053 H       1  UNL1        0.0621
    120 H           6.0174    1.9477    2.2935 H       1  UNL1        0.0624
    121 H           7.6121   -0.4914    7.2194 H       1  UNL1        0.0293
    122 H           6.1279   -1.6621    7.3770 H       1  UNL1        0.0293
    123 H           6.8650   -1.2735    5.8666 H       1  UNL1        0.0293
    124 H           3.8182    2.6310    8.2674 H       1  UNL1        0.0907
    125 H           5.2145   -2.7151    4.6323 H       1  UNL1        0.0624
    126 H           5.5947   -3.0509    1.4887 H       1  UNL1        0.0621
    127 H           5.2290   -3.7037   -4.2500 H       1  UNL1        0.0313
    128 H           5.5783   -2.0438   -4.7464 H       1  UNL1        0.0313
    129 H           3.8146   -2.6916   -6.2897 H       1  UNL1        0.0610
    130 H           2.4191   -3.7193   -4.0289 H       1  UNL1        0.2098
    131 H           3.2807   -0.5007   -5.3174 H       1  UNL1        0.0490
    132 H           1.7892   -1.4035   -4.9674 H       1  UNL1        0.0490
@<TRIPOS>BOND
     1     1     2    1
     2     2     3    1
     3     2     4    1
     4     6     7   am
     5     7     8    1
     6     8     9    1
     7     9    10    1
     8    10    11    1
     9    11    12    1
    10    12    13    1
    11    13    14    1
    12    14    15    1
    13    15    16    1
    14    16    17    1
    15    17    18    1
    16    18    19    1
    17    19    20    1
    18    20    21   ar
    19    21    22    1
    20    22    23    1
    21    21    24   ar
    22    24    25   ar
    23    25    26    1
    24    26    27   ar
    25    27    28   ar
    26    28    29   ar
    27    29    30   ar
    28    30    31   ar
    29    31    32   ar
    30    27    32   ar
    31    26    33   ar
    32    33    34   ar
    33    34    35    1
    34    34    36   ar
    35    28    36   ar
    36    36    37    2
    37    25    38   ar
    38    38    39   ar
    39    20    39   ar
    40    39    40    1
    41    40    41    1
    42    18    42    1
    43    42    43    1
    44    15    43    1
    45     7    44    2
    46     5    45    1
    47    45    46   am
    48    46    47    1
    49    47    48    1
    50    48    49   am
    51    49    50    1
    52    50    51    1
    53    51    52   ar
    54    52    53   ar
    55    53    54   ar
    56    54    55    1
    57    55    56   ar
    58    56    57    1
    59    56    58   ar
    60    58    59   ar
    61    59    60   ar
    62    55    60   ar
    63    54    61   ar
    64    61    62   ar
    65    51    62   ar
    66    48    63    2
    67    47    64    1
    68    64    65    1
    69    65    66    1
    70    65    67    1
    71    46    67    1
    72    45    68    2
    73     1    69    1
    74     1    70    1
    75     1    71    1
    76     3    72    1
    77     3    73    1
    78     3    74    1
    79     4    75    1
    80     4    76    1
    81     4    77    1
    82     5    78    1
    83     6    79    1
    84     8    80    1
    85     8    81    1
    86    10    82    1
    87    10    83    1
    88    11    84    1
    89    11    85    1
    90    13    86    1
    91    13    87    1
    92    14    88    1
    93    14    89    1
    94    16    90    1
    95    16    91    1
    96    17    92    1
    97    17    93    1
    98    19    94    1
    99    19    95    1
   100    23    96    1
   101    23    97    1
   102    23    98    1
   103    24    99    1
   104    29   100    1
   105    31   101    1
   106    32   102    1
   107    33   103    1
   108    35   104    1
   109    35   105    1
   110    35   106    1
   111    38   107    1
   112    41   108    1
   113    41   109    1
   114    41   110    1
   115    42   111    1
   116    42   112    1
   117    43   113    1
   118    43   114    1
   119    47   115    1
   120    49   116    1
   121    50   117    1
   122    50   118    1
   123    52   119    1
   124    53   120    1
   125    57   121    1
   126    57   122    1
   127    57   123    1
   128    59   124    1
   129    61   125    1
   130    62   126    1
   131    64   127    1
   132    64   128    1
   133    65   129    1
   134    66   130    1
   135    67   131    1
   136    67   132    1
   137     5     6    1
   138     5     2    1
