@<TRIPOS>MOLECULE
*****
 24 23 0 0 0
SMALL
GASTEIGER

@<TRIPOS>ATOM
      1 O           0.7833    0.0011    0.2221 O.3     1  UNL1       -0.3927
      2 C           0.6161   -0.9133    1.3017 C.3     1  UNL1        0.0676
      3 C           1.4341   -2.2136    1.2448 C.3     1  UNL1        0.0708
      4 O           2.8083   -2.1323    0.9249 O.3     1  UNL1       -0.3752
      5 C           3.1112   -1.4749   -0.3213 C.3     1  UNL1        0.0711
      6 C           2.4913   -1.8165   -1.7432 C.3     1  UNL1        0.0714
      7 O           1.0906   -1.8382   -2.0932 O.3     1  UNL1       -0.3735
      8 C           0.2914   -2.7917   -1.4090 C.3     1  UNL1        0.0657
      9 C           0.9435   -4.1909   -1.4116 C.2     1  UNL1       -0.0658
     10 C           1.7036   -4.8680   -0.5573 C.2     1  UNL1       -0.1005
     11 H           1.6063    0.4948    0.3598 H       1  UNL1        0.2095
     12 H           0.8490   -0.3994    2.2292 H       1  UNL1        0.0580
     13 H          -0.4531   -1.1538    1.2881 H       1  UNL1        0.0580
     14 H           1.1516   -2.9051    2.0533 H       1  UNL1        0.0583
     15 H           1.1393   -2.8680    0.4872 H       1  UNL1        0.0583
     16 H           3.0608   -0.4092   -0.1245 H       1  UNL1        0.0583
     17 H           4.1924   -1.6252   -0.4406 H       1  UNL1        0.0583
     18 H           2.8977   -1.0388   -2.4068 H       1  UNL1        0.0583
     19 H           2.9241   -2.7490   -2.1090 H       1  UNL1        0.0583
     20 H           0.0399   -2.2556   -0.5168 H       1  UNL1        0.0604
     21 H          -0.7643   -2.8651   -1.7009 H       1  UNL1        0.0604
     22 H           0.7771   -4.6777   -2.3765 H       1  UNL1        0.0589
     23 H           2.1326   -5.8445   -0.8098 H       1  UNL1        0.0532
     24 H           2.0540   -4.5548    0.4368 H       1  UNL1        0.0532
@<TRIPOS>BOND
     1     1     2    1
     2     2     3    1
     3     3     4    1
     4     4     5    1
     5     5     6    1
     6     6     7    1
     7     7     8    1
     8     8     9    1
     9     9    10    2
    10     1    11    1
    11     2    12    1
    12     2    13    1
    13     3    14    1
    14     3    15    1
    15     5    16    1
    16     5    17    1
    17     6    18    1
    18     6    19    1
    19     8    20    1
    20     8    21    1
    21     9    22    1
    22    10    23    1
    23    10    24    1
