@<TRIPOS>MOLECULE
*****
 100 103 0 0 0
SMALL
GASTEIGER

@<TRIPOS>ATOM
      1 C          -2.5956   -7.5400    5.7936 C.3     1  UNL1       -0.0212
      2 C          -1.4769   -8.3583    6.3454 C.ar    1  UNL1        0.0531
      3 C          -0.2259   -8.7043    5.8462 C.ar    1  UNL1        0.0418
      4 S           0.6294   -9.7099    6.9389 S.2     1  UNL1       -0.0752
      5 C          -0.6775   -9.5771    8.0069 C.ar    1  UNL1        0.0655
      6 N          -1.7077   -8.8702    7.6120 N.ar    1  UNL1       -0.2520
      7 C           0.5042   -8.3908    4.6515 C.ar    1  UNL1       -0.0061
      8 C           0.5234   -9.3097    3.6187 C.ar    1  UNL1       -0.0529
      9 C           1.0854   -8.9216    2.4321 C.ar    1  UNL1       -0.0530
     10 C           1.7436   -7.6821    2.2613 C.ar    1  UNL1        0.0113
     11 C           2.1465   -7.3440    0.8459 C.3     1  UNL1        0.0403
     12 N           3.3984   -7.7898    0.2686 N.am    1  UNL1       -0.3095
     13 C           3.4381   -8.0481   -1.1050 C.2     1  UNL1        0.2339
     14 C           4.4912   -9.0648   -1.5585 C.3     1  UNL1        0.1047
     15 C           5.8409   -8.4936   -1.9530 C.3     1  UNL1        0.0018
     16 C           6.2840   -9.4866   -3.0251 C.3     1  UNL1        0.0731
     17 O           6.8356  -10.6551   -2.3994 O.3     1  UNL1       -0.3902
     18 C           4.9803   -9.8191   -3.7673 C.3     1  UNL1        0.0416
     19 N           3.9687   -9.8053   -2.7222 N.am    1  UNL1       -0.2858
     20 C           2.7072  -10.3878   -2.9070 C.2     1  UNL1        0.2371
     21 C           1.6738  -10.5248   -1.7044 C.3     1  UNL1        0.1045
     22 C           2.2051  -11.4320   -0.5252 C.3     1  UNL1       -0.0108
     23 C           3.2089  -12.4588   -1.0254 C.3     1  UNL1       -0.0579
     24 C           2.8977  -10.6436    0.5748 C.3     1  UNL1       -0.0579
     25 C           1.0333  -12.1086    0.2130 C.3     1  UNL1       -0.0579
     26 N           0.3400  -10.9963   -2.1900 N.am    1  UNL1       -0.3009
     27 C          -0.7928  -10.2089   -2.1069 C.2     1  UNL1        0.2508
     28 C          -2.1366  -10.7735   -2.4692 C.3     1  UNL1        0.1868
     29 F          -3.1963  -10.2648   -1.7077 F       1  UNL1       -0.2320
     30 C          -2.4667  -11.0309   -3.9226 C.3     1  UNL1       -0.0068
     31 C          -2.4136  -12.1751   -2.9522 C.3     1  UNL1       -0.0068
     32 O          -0.7624   -9.0414   -1.6713 O.2     1  UNL1       -0.2723
     33 O           2.4203  -10.8915   -4.0025 O.2     1  UNL1       -0.2735
     34 O           2.5796   -7.6799   -1.9064 O.2     1  UNL1       -0.2738
     35 C           1.6754   -6.7289    3.3317 C.ar    1  UNL1        0.1259
     36 O           1.7710   -5.3631    3.0810 O.3     1  UNL1       -0.4893
     37 C           1.0303   -4.3256    3.8446 C.3     1  UNL1        0.1128
     38 C          -0.5296   -4.2225    4.1247 C.3     1  UNL1        0.0817
     39 O          -1.3450   -5.3802    4.2055 O.3     1  UNL1       -0.3764
     40 C          -1.2222   -6.2582    3.1110 C.3     1  UNL1        0.0478
     41 C          -1.9161   -6.0063    1.8319 C.3     1  UNL1       -0.0293
     42 C          -1.5147   -4.6489    1.2557 C.3     1  UNL1       -0.0464
     43 C          -0.0852   -4.4737    0.6867 C.3     1  UNL1       -0.0016
     44 C           0.3406   -5.4017   -0.4482 C.3     1  UNL1        0.1584
     45 O          -0.3824   -5.3324   -1.6473 O.3     1  UNL1       -0.3545
     46 C          -1.7129   -5.7413   -1.4432 C.3     1  UNL1        0.0394
     47 O           1.7284   -5.3623   -0.7537 O.3     1  UNL1       -0.3545
     48 C           2.3607   -4.1251   -0.9042 C.3     1  UNL1        0.0394
     49 C           1.1059   -7.1308    4.5317 C.ar    1  UNL1       -0.0113
     50 H          -3.5391   -8.0900    5.8274 H       1  UNL1        0.0293
     51 H          -2.7035   -6.6007    6.3460 H       1  UNL1        0.0293
     52 H          -2.5220   -7.2927    4.7536 H       1  UNL1        0.0293
     53 H          -0.6405  -10.0631    8.9639 H       1  UNL1        0.0907
     54 H           0.0352  -10.2793    3.6775 H       1  UNL1        0.0624
     55 H           0.8568   -9.5861    1.6091 H       1  UNL1        0.0622
     56 H           1.3566   -7.7127    0.1720 H       1  UNL1        0.0513
     57 H           2.2481   -6.2809    0.9053 H       1  UNL1        0.0513
     58 H           4.2160   -7.3638    0.6706 H       1  UNL1        0.1491
     59 H           4.7966   -9.8083   -0.8449 H       1  UNL1        0.0597
     60 H           6.5182   -8.4918   -1.0869 H       1  UNL1        0.0313
     61 H           5.7431   -7.4732   -2.3265 H       1  UNL1        0.0313
     62 H           7.0593   -9.0718   -3.6704 H       1  UNL1        0.0610
     63 H           6.1072  -11.1974   -2.0468 H       1  UNL1        0.2098
     64 H           4.7187   -9.0250   -4.4712 H       1  UNL1        0.0490
     65 H           5.0031  -10.7905   -4.2691 H       1  UNL1        0.0490
     66 H           1.4524   -9.5395   -1.3063 H       1  UNL1        0.0600
     67 H           4.0819  -11.9773   -1.4739 H       1  UNL1        0.0236
     68 H           3.5982  -13.0542   -0.1976 H       1  UNL1        0.0236
     69 H           2.7560  -13.1044   -1.7782 H       1  UNL1        0.0236
     70 H           2.3206   -9.7590    0.6748 H       1  UNL1        0.0236
     71 H           3.0080  -11.1518    1.5315 H       1  UNL1        0.0236
     72 H           3.8858  -10.2780    0.4192 H       1  UNL1        0.0236
     73 H           0.3092  -11.3647    0.5695 H       1  UNL1        0.0236
     74 H           0.5001  -12.8137   -0.4246 H       1  UNL1        0.0236
     75 H           1.3937  -12.6527    1.0923 H       1  UNL1        0.0236
     76 H           0.2908  -11.9110   -2.6192 H       1  UNL1        0.1496
     77 H          -3.4374  -10.7090   -4.2834 H       1  UNL1        0.0302
     78 H          -1.6730  -10.9392   -4.6537 H       1  UNL1        0.0302
     79 H          -1.6186  -12.8973   -3.0431 H       1  UNL1        0.0302
     80 H          -3.3624  -12.6070   -2.6426 H       1  UNL1        0.0302
     81 H           1.5470   -4.1779    4.7906 H       1  UNL1        0.0720
     82 H           1.2199   -3.4031    3.2669 H       1  UNL1        0.0720
     83 H          -0.6738   -3.6606    5.0582 H       1  UNL1        0.0594
     84 H          -1.0185   -3.5022    3.4757 H       1  UNL1        0.0594
     85 H          -0.2351   -6.1949    2.7638 H       1  UNL1        0.0560
     86 H          -1.3827   -7.2983    3.3872 H       1  UNL1        0.0560
     87 H          -1.5976   -6.8478    1.2004 H       1  UNL1        0.0287
     88 H          -2.9916   -6.1053    1.9727 H       1  UNL1        0.0287
     89 H          -2.3055   -4.3494    0.5942 H       1  UNL1        0.0268
     90 H          -1.6653   -3.8538    1.9603 H       1  UNL1        0.0268
     91 H           0.0922   -3.4240    0.4434 H       1  UNL1        0.0314
     92 H           0.6407   -4.6523    1.4643 H       1  UNL1        0.0314
     93 H           0.1478   -6.3867   -0.0291 H       1  UNL1        0.0909
     94 H          -1.8084   -6.6444   -0.8269 H       1  UNL1        0.0525
     95 H          -2.2023   -4.8932   -1.0037 H       1  UNL1        0.0525
     96 H          -2.2344   -5.8695   -2.3783 H       1  UNL1        0.0525
     97 H           1.9554   -3.6426   -1.7874 H       1  UNL1        0.0525
     98 H           2.2576   -3.5156   -0.0045 H       1  UNL1        0.0525
     99 H           3.4346   -4.3052   -1.0383 H       1  UNL1        0.0525
    100 H           0.8829   -6.3923    5.2928 H       1  UNL1        0.0660
@<TRIPOS>BOND
     1     1     2    1
     2     2     3   ar
     3     3     4   ar
     4     4     5   ar
     5     5     6   ar
     6     2     6   ar
     7     3     7    1
     8     7     8   ar
     9     8     9   ar
    10     9    10   ar
    11    10    11    1
    12    11    12    1
    13    12    13   am
    14    14    15    1
    15    15    16    1
    16    16    17    1
    17    16    18    1
    18    18    19    1
    19    14    19    1
    20    19    20   am
    21    22    23    1
    22    22    24    1
    23    22    25    1
    24    21    26    1
    25    26    27   am
    26    27    28    1
    27    28    29    1
    28    28    30    1
    29    30    31    1
    30    28    31    1
    31    27    32    2
    32    20    33    2
    33    13    34    2
    34    10    35   ar
    35    35    36    1
    36    36    37    1
    37    37    38    1
    38    38    39    1
    39    39    40    1
    40    40    41    1
    41    41    42    1
    42    42    43    1
    43    43    44    1
    44    44    45    1
    45    45    46    1
    46    44    47    1
    47    47    48    1
    48    35    49   ar
    49     7    49   ar
    50     1    50    1
    51     1    51    1
    52     1    52    1
    53     5    53    1
    54     8    54    1
    55     9    55    1
    56    11    56    1
    57    11    57    1
    58    12    58    1
    59    15    60    1
    60    15    61    1
    61    16    62    1
    62    17    63    1
    63    18    64    1
    64    18    65    1
    65    21    66    1
    66    23    67    1
    67    23    68    1
    68    23    69    1
    69    24    70    1
    70    24    71    1
    71    24    72    1
    72    25    73    1
    73    25    74    1
    74    25    75    1
    75    26    76    1
    76    30    77    1
    77    30    78    1
    78    31    79    1
    79    31    80    1
    80    37    81    1
    81    37    82    1
    82    38    83    1
    83    38    84    1
    84    40    85    1
    85    40    86    1
    86    41    87    1
    87    41    88    1
    88    42    89    1
    89    42    90    1
    90    43    91    1
    91    43    92    1
    92    44    93    1
    93    46    94    1
    94    46    95    1
    95    46    96    1
    96    48    97    1
    97    48    98    1
    98    48    99    1
    99    49   100    1
   100    21    22    1
   101    21    20    1
   102    14    59    1
   103    14    13    1
