@<TRIPOS>MOLECULE
*****
 33 32 0 0 0
SMALL
GASTEIGER

@<TRIPOS>ATOM
      1 O           0.5904    0.0557    0.2615 O.3     1  UNL1       -0.3927
      2 C           0.2923   -1.2701    0.7143 C.3     1  UNL1        0.0676
      3 C           1.1190   -2.3670    0.0795 C.3     1  UNL1        0.0708
      4 O           2.4492   -1.8394    0.0899 O.3     1  UNL1       -0.3752
      5 C           2.9241   -0.7982   -0.8462 C.3     1  UNL1        0.0711
      6 C           2.3841   -0.2621   -2.2807 C.3     1  UNL1        0.0710
      7 O           1.0352   -0.2413   -2.7792 O.3     1  UNL1       -0.3775
      8 C           0.4217   -1.4883   -2.5846 C.3     1  UNL1        0.0478
      9 C           1.0291   -2.7674   -3.2605 C.3     1  UNL1       -0.0292
     10 C           2.5592   -3.1187   -3.2884 C.3     1  UNL1       -0.0475
     11 C           3.2009   -3.6187   -2.0132 C.3     1  UNL1       -0.0349
     12 C           2.6539   -4.8814   -1.4542 C.2     1  UNL1       -0.0911
     13 C           3.4743   -5.8120   -1.0509 C.2     1  UNL1       -0.1026
     14 H           1.4924    0.2547    0.5618 H       1  UNL1        0.2095
     15 H           0.5890   -1.3046    1.7595 H       1  UNL1        0.0580
     16 H          -0.7727   -1.4087    0.5622 H       1  UNL1        0.0580
     17 H           0.9455   -3.3428    0.5658 H       1  UNL1        0.0583
     18 H           0.8524   -2.8025   -0.8814 H       1  UNL1        0.0583
     19 H           3.0822    0.0760   -0.2209 H       1  UNL1        0.0583
     20 H           3.9801   -1.0774   -1.0280 H       1  UNL1        0.0583
     21 H           2.7696    0.7546   -2.3901 H       1  UNL1        0.0583
     22 H           2.9233   -0.7251   -3.0853 H       1  UNL1        0.0583
     23 H           0.5626   -1.4024   -1.5606 H       1  UNL1        0.0560
     24 H          -0.6815   -1.5416   -2.4914 H       1  UNL1        0.0560
     25 H           0.5090   -3.6570   -2.8724 H       1  UNL1        0.0287
     26 H           0.7187   -2.6910   -4.3040 H       1  UNL1        0.0287
     27 H           2.7452   -3.8883   -4.0359 H       1  UNL1        0.0269
     28 H           3.1644   -2.3050   -3.6680 H       1  UNL1        0.0269
     29 H           4.2962   -3.5249   -1.9802 H       1  UNL1        0.0307
     30 H           2.9720   -2.9428   -1.2667 H       1  UNL1        0.0307
     31 H           1.5674   -4.9705   -1.3195 H       1  UNL1        0.0566
     32 H           3.1014   -6.7596   -0.6699 H       1  UNL1        0.0532
     33 H           4.5516   -5.6306   -1.1011 H       1  UNL1        0.0532
@<TRIPOS>BOND
     1     1     2    1
     2     2     3    1
     3     3     4    1
     4     4     5    1
     5     5     6    1
     6     6     7    1
     7     7     8    1
     8     8     9    1
     9     9    10    1
    10    10    11    1
    11    11    12    1
    12    12    13    2
    13     1    14    1
    14     2    15    1
    15     2    16    1
    16     3    17    1
    17     3    18    1
    18     5    19    1
    19     5    20    1
    20     6    21    1
    21     6    22    1
    22     8    23    1
    23     8    24    1
    24     9    25    1
    25     9    26    1
    26    10    27    1
    27    10    28    1
    28    11    29    1
    29    11    30    1
    30    12    31    1
    31    13    32    1
    32    13    33    1
