@<TRIPOS>MOLECULE
*****
 96 99 0 0 0
SMALL
GASTEIGER

@<TRIPOS>ATOM
      1 C           0.9766    0.0074    0.1341 C.3     1  UNL1        0.0788
      2 O           0.6052   -0.1157   -1.2167 O.3     1  UNL1       -0.4947
      3 C           1.1423    0.7748   -2.0882 C.ar    1  UNL1        0.1285
      4 C           2.3584    1.3388   -2.0264 C.ar    1  UNL1       -0.0116
      5 C           2.7427    2.3074   -2.9677 C.ar    1  UNL1       -0.0090
      6 C           4.0877    2.7620   -2.9412 C.ar    1  UNL1        0.0065
      7 C           4.9286    1.8126   -3.3127 C.ar    1  UNL1        0.0159
      8 N           6.2800    2.0440   -3.3564 N.ar    1  UNL1       -0.3171
      9 C           7.1485    0.9630   -3.7327 C.3     1  UNL1        0.0147
     10 C           6.7934    3.2776   -3.0375 C.ar    1  UNL1        0.2603
     11 C           5.8786    4.3435   -2.6383 C.ar    1  UNL1        0.0653
     12 C           4.5170    4.0959   -2.6008 C.ar    1  UNL1       -0.0007
     13 C           3.6270    5.0680   -2.1568 C.ar    1  UNL1       -0.0351
     14 C           4.1735    6.1431   -1.5085 C.ar    1  UNL1        0.0282
     15 N           5.4825    6.4627   -1.5931 N.ar    1  UNL1       -0.2625
     16 C           6.2940    5.5842   -2.2295 C.ar    1  UNL1        0.0405
     17 O           8.0593    3.5232   -3.0485 O.2     1  UNL1       -0.2670
     18 C           2.0261    2.7708   -4.0488 C.ar    1  UNL1       -0.0116
     19 C           0.8683    2.1146   -4.2914 C.ar    1  UNL1        0.1285
     20 O           0.1039    2.6733   -5.3402 O.3     1  UNL1       -0.4947
     21 C           0.3536    3.9408   -6.0298 C.3     1  UNL1        0.0788
     22 C           0.3840    1.1212   -3.1804 C.ar    1  UNL1        0.0498
     23 C          -1.0488    0.8358   -2.6787 C.3     1  UNL1        0.0311
     24 N          -1.5182    2.0507   -2.0765 N.3     1  UNL1       -0.2955
     25 C          -1.5633    2.7245   -0.6889 C.3     1  UNL1        0.0120
     26 C          -0.4620    4.1603   -0.5730 C.3     1  UNL1        0.0118
     27 N          -0.1732    5.1892   -1.8026 N.3     1  UNL1       -0.2977
     28 C          -0.9312    6.6330   -2.1061 C.3     1  UNL1        0.0224
     29 C          -2.5046    7.0329   -2.2317 C.3     1  UNL1        0.0605
     30 O          -3.5153    6.4642   -1.3993 O.3     1  UNL1       -0.3762
     31 C          -2.9645    5.2747   -1.0550 C.3     1  UNL1        0.0711
     32 C          -2.6729    4.5875   -2.3310 C.3     1  UNL1        0.0711
     33 O          -2.2768    4.8536   -3.6963 O.3     1  UNL1       -0.3752
     34 C          -3.3213    5.2543   -4.4660 C.3     1  UNL1        0.0711
     35 C          -4.6896    4.6885   -4.0773 C.3     1  UNL1        0.0711
     36 O          -5.0069    3.6238   -3.0898 O.3     1  UNL1       -0.3752
     37 C          -4.3309    2.3259   -2.8126 C.3     1  UNL1        0.0711
     38 C          -3.5847    1.5308   -3.9003 C.3     1  UNL1        0.0711
     39 O          -3.2297    1.6604   -5.3113 O.3     1  UNL1       -0.3752
     40 C          -4.1173    2.6114   -5.8800 C.3     1  UNL1        0.0711
     41 C          -5.6715    2.3283   -5.8489 C.3     1  UNL1        0.0717
     42 O          -6.2694    1.6258   -4.6967 O.3     1  UNL1       -0.3664
     43 C          -5.8423    0.2660   -4.3713 C.3     1  UNL1        0.1444
     44 C          -5.4232   -0.5342   -5.5888 C.2     1  UNL1        0.3308
     45 O          -4.0919   -0.5048   -5.9795 O.3     1  UNL1       -0.4790
     46 O          -6.2402   -1.1148   -6.2008 O.2     1  UNL1       -0.2484
     47 C          -0.1600    4.2388   -2.9808 C.3     1  UNL1        0.0118
     48 C          -1.2754    2.8979   -3.2721 C.3     1  UNL1        0.0120
     49 H           0.5594   -0.8626    0.6444 H       1  UNL1        0.0660
     50 H           0.5684    0.9163    0.5911 H       1  UNL1        0.0660
     51 H           2.0576   -0.0350    0.2148 H       1  UNL1        0.0660
     52 H           3.0503    0.9899   -1.2846 H       1  UNL1        0.0660
     53 H           4.5794    0.8109   -3.5894 H       1  UNL1        0.0816
     54 H           7.7083    1.2814   -4.6137 H       1  UNL1        0.0457
     55 H           7.8319    0.7738   -2.9019 H       1  UNL1        0.0457
     56 H           6.5856    0.0524   -3.9607 H       1  UNL1        0.0457
     57 H           2.5494    4.9633   -2.2164 H       1  UNL1        0.0639
     58 H           3.5611    6.7412   -0.8420 H       1  UNL1        0.0830
     59 H           7.3240    5.8878   -2.3736 H       1  UNL1        0.0837
     60 H           2.2616    3.7463   -4.4837 H       1  UNL1        0.0660
     61 H           0.6134    4.8678   -5.4863 H       1  UNL1        0.0660
     62 H           1.1824    3.7666   -6.6993 H       1  UNL1        0.0660
     63 H          -0.5561    4.2375   -6.5801 H       1  UNL1        0.0660
     64 H          -1.4898    0.5571   -3.6361 H       1  UNL1        0.0478
     65 H          -1.4050    0.0140   -2.0445 H       1  UNL1        0.0478
     66 H          -2.6544    3.0056   -0.6844 H       1  UNL1        0.0439
     67 H          -1.8335    2.3394    0.3397 H       1  UNL1        0.0439
     68 H           0.4735    3.6118   -0.4418 H       1  UNL1        0.0439
     69 H          -0.6058    4.8063    0.3066 H       1  UNL1        0.0439
     70 H          -0.6696    7.3329   -1.3328 H       1  UNL1        0.0449
     71 H          -0.5583    6.9633   -3.1095 H       1  UNL1        0.0449
     72 H          -3.0445    7.6392   -2.9635 H       1  UNL1        0.0572
     73 H          -2.3757    6.4205   -3.0374 H       1  UNL1        0.0572
     74 H          -2.0372    5.5429   -0.6185 H       1  UNL1        0.0583
     75 H          -3.3268    4.7016   -0.1897 H       1  UNL1        0.0583
     76 H          -1.8493    4.1078   -1.9855 H       1  UNL1        0.0583
     77 H          -3.3637    3.8854   -2.3464 H       1  UNL1        0.0583
     78 H          -3.5919    6.2022   -4.1057 H       1  UNL1        0.0583
     79 H          -2.8966    5.6907   -5.3926 H       1  UNL1        0.0583
     80 H          -5.3849    5.5056   -3.9157 H       1  UNL1        0.0583
     81 H          -5.0427    4.4765   -5.0565 H       1  UNL1        0.0583
     82 H          -3.4309    2.3686   -2.3048 H       1  UNL1        0.0583
     83 H          -4.6931    1.8474   -1.8684 H       1  UNL1        0.0583
     84 H          -3.2779    0.5433   -3.5596 H       1  UNL1        0.0583
     85 H          -4.5425    1.5832   -4.1755 H       1  UNL1        0.0583
     86 H          -3.9527    3.2186   -5.0601 H       1  UNL1        0.0583
     87 H          -3.7195    3.3199   -6.6226 H       1  UNL1        0.0583
     88 H          -6.1899    3.3054   -5.8922 H       1  UNL1        0.0583
     89 H          -5.9173    1.7794   -6.7392 H       1  UNL1        0.0583
     90 H          -4.8718   -0.0019   -3.9319 H       1  UNL1        0.0676
     91 H          -6.1164    0.0775   -3.3174 H       1  UNL1        0.0676
     92 H          -3.3964    0.1177   -5.6400 H       1  UNL1        0.2951
     93 H           0.7028    3.7191   -2.6359 H       1  UNL1        0.0439
     94 H           0.0342    4.8361   -3.8581 H       1  UNL1        0.0439
     95 H          -1.2966    2.3502   -4.2341 H       1  UNL1        0.0439
     96 H          -2.2463    3.0793   -3.6984 H       1  UNL1        0.0439
@<TRIPOS>BOND
     1     1     2    1
     2     2     3    1
     3     3     4   ar
     4     4     5   ar
     5     5     6    1
     6     6     7   ar
     7     7     8   ar
     8     8     9    1
     9     8    10   ar
    10    10    11   ar
    11    11    12   ar
    12     6    12   ar
    13    12    13   ar
    14    13    14   ar
    15    14    15   ar
    16    15    16   ar
    17    11    16   ar
    18    10    17    2
    19     5    18   ar
    20    18    19   ar
    21    19    20    1
    22    20    21    1
    23     3    22   ar
    24    19    22   ar
    25    22    23    1
    26    23    24    1
    27    24    25    1
    28    25    26    1
    29    26    27    1
    30    27    28    1
    31    28    29    1
    32    29    30    1
    33    30    31    1
    34    31    32    1
    35    32    33    1
    36    33    34    1
    37    34    35    1
    38    35    36    1
    39    36    37    1
    40    37    38    1
    41    38    39    1
    42    39    40    1
    43    40    41    1
    44    41    42    1
    45    42    43    1
    46    43    44    1
    47    44    45    1
    48    44    46    2
    49    27    47    1
    50    47    48    1
    51    24    48    1
    52     1    49    1
    53     1    50    1
    54     1    51    1
    55     4    52    1
    56     7    53    1
    57     9    54    1
    58     9    55    1
    59     9    56    1
    60    13    57    1
    61    14    58    1
    62    16    59    1
    63    18    60    1
    64    21    61    1
    65    21    62    1
    66    21    63    1
    67    23    64    1
    68    23    65    1
    69    25    66    1
    70    25    67    1
    71    26    68    1
    72    26    69    1
    73    28    70    1
    74    28    71    1
    75    29    72    1
    76    29    73    1
    77    31    74    1
    78    31    75    1
    79    32    76    1
    80    32    77    1
    81    34    78    1
    82    34    79    1
    83    35    80    1
    84    35    81    1
    85    37    82    1
    86    37    83    1
    87    38    84    1
    88    38    85    1
    89    40    86    1
    90    40    87    1
    91    41    88    1
    92    41    89    1
    93    43    90    1
    94    43    91    1
    95    45    92    1
    96    47    93    1
    97    47    94    1
    98    48    95    1
    99    48    96    1
