@<TRIPOS>MOLECULE
*****
 89 92 0 0 0
SMALL
GASTEIGER

@<TRIPOS>ATOM
      1 C           1.0846    0.0595   -0.0014 C.3     1  UNL1        0.0788
      2 O           0.6897   -1.2573    0.3824 O.3     1  UNL1       -0.4947
      3 C           1.1272   -2.3756   -0.2887 C.ar    1  UNL1        0.1285
      4 C           2.3036   -2.4485   -0.9981 C.ar    1  UNL1       -0.0116
      5 C           2.5107   -3.4990   -1.9190 C.ar    1  UNL1       -0.0090
      6 C           3.7696   -3.6611   -2.5840 C.ar    1  UNL1        0.0065
      7 C           4.7134   -4.0057   -1.6860 C.ar    1  UNL1        0.0159
      8 N           5.9929   -4.2485   -2.0444 N.ar    1  UNL1       -0.3171
      9 C           6.9516   -4.5613   -1.0133 C.3     1  UNL1        0.0147
     10 C           6.4589   -4.1923   -3.3777 C.ar    1  UNL1        0.2603
     11 C           5.4111   -3.8405   -4.3789 C.ar    1  UNL1        0.0653
     12 C           4.1055   -3.6040   -3.9950 C.ar    1  UNL1       -0.0007
     13 C           3.1762   -3.2232   -4.9529 C.ar    1  UNL1       -0.0351
     14 C           3.6618   -2.8115   -6.1709 C.ar    1  UNL1        0.0282
     15 N           4.9073   -3.0924   -6.5986 N.ar    1  UNL1       -0.2625
     16 C           5.7410   -3.6819   -5.7043 C.ar    1  UNL1        0.0405
     17 O           7.5832   -4.3742   -3.7103 O.2     1  UNL1       -0.2670
     18 C           1.6437   -4.5582   -2.0968 C.ar    1  UNL1       -0.0116
     19 C           0.5368   -4.6456   -1.2713 C.ar    1  UNL1        0.1285
     20 O          -0.3612   -5.6772   -1.5853 O.3     1  UNL1       -0.4947
     21 C          -0.3309   -6.4719   -2.8277 C.3     1  UNL1        0.0788
     22 C           0.2129   -3.4627   -0.3974 C.ar    1  UNL1        0.0498
     23 C          -1.2111   -2.9304   -0.1766 C.3     1  UNL1        0.0311
     24 N          -1.5442   -2.5411   -1.4805 N.3     1  UNL1       -0.2955
     25 C          -1.1015   -1.2184   -1.9882 C.3     1  UNL1        0.0120
     26 C           0.0586   -1.4253   -3.1784 C.3     1  UNL1        0.0118
     27 N          -0.0951   -2.5238   -4.2544 N.3     1  UNL1       -0.2977
     28 C          -0.4416   -2.2503   -5.7332 C.3     1  UNL1        0.0224
     29 C          -1.8191   -1.7246   -6.1502 C.3     1  UNL1        0.0605
     30 O          -2.4779   -0.5940   -5.6086 O.3     1  UNL1       -0.3762
     31 C          -2.3455   -0.7634   -4.2568 C.3     1  UNL1        0.0711
     32 C          -2.8873   -2.0637   -3.7230 C.3     1  UNL1        0.0711
     33 O          -3.0150   -3.3854   -4.2145 O.3     1  UNL1       -0.3752
     34 C          -3.9002   -3.4544   -5.2155 C.3     1  UNL1        0.0711
     35 C          -5.1281   -2.6892   -4.8094 C.3     1  UNL1        0.0711
     36 O          -5.3914   -1.7302   -3.4021 O.3     1  UNL1       -0.3752
     37 C          -4.8723   -1.9083   -1.8125 C.3     1  UNL1        0.0711
     38 C          -5.0913   -3.2393   -0.9942 C.3     1  UNL1        0.0717
     39 O          -4.9675   -4.5274   -1.6348 O.3     1  UNL1       -0.3664
     40 C          -5.6436   -4.4291   -2.8400 C.3     1  UNL1        0.1444
     41 C          -7.1276   -3.9284   -2.9234 C.2     1  UNL1        0.3308
     42 O          -7.4058   -2.7013   -3.4882 O.3     1  UNL1       -0.4790
     43 O          -8.0105   -4.5836   -2.4891 O.2     1  UNL1       -0.2484
     44 C          -0.8139   -3.6927   -3.6687 C.3     1  UNL1        0.0118
     45 C          -1.7413   -3.7628   -2.3273 C.3     1  UNL1        0.0120
     46 H           0.6544    0.7367    0.7459 H       1  UNL1        0.0660
     47 H           0.6969    0.4092   -0.9667 H       1  UNL1        0.0660
     48 H           2.1627    0.1615   -0.0083 H       1  UNL1        0.0660
     49 H           3.0362   -1.6558   -0.9433 H       1  UNL1        0.0660
     50 H           4.4547   -4.0949   -0.6326 H       1  UNL1        0.0816
     51 H           7.3793   -5.5391   -1.2351 H       1  UNL1        0.0457
     52 H           7.7310   -3.7978   -1.0262 H       1  UNL1        0.0457
     53 H           6.4739   -4.5813   -0.0270 H       1  UNL1        0.0457
     54 H           2.1238   -3.1623   -4.7385 H       1  UNL1        0.0639
     55 H           3.0537   -2.1777   -6.8100 H       1  UNL1        0.0830
     56 H           6.7084   -3.9904   -6.0793 H       1  UNL1        0.0837
     57 H           1.6998   -5.0994   -3.0561 H       1  UNL1        0.0660
     58 H          -0.0901   -6.0182   -3.8071 H       1  UNL1        0.0660
     59 H           0.4388   -7.2097   -2.6813 H       1  UNL1        0.0660
     60 H          -1.3205   -6.9322   -3.0110 H       1  UNL1        0.0660
     61 H          -1.9800   -3.6386    0.1165 H       1  UNL1        0.0478
     62 H          -1.4273   -1.9915    0.3737 H       1  UNL1        0.0478
     63 H          -2.0911   -0.7310   -2.1406 H       1  UNL1        0.0439
     64 H          -0.9340   -0.3079   -1.3747 H       1  UNL1        0.0439
     65 H           0.8947   -1.7033   -2.5860 H       1  UNL1        0.0439
     66 H           0.4284   -0.5058   -3.6697 H       1  UNL1        0.0439
     67 H           0.2482   -1.5706   -6.2003 H       1  UNL1        0.0449
     68 H          -0.4422   -3.2466   -6.2385 H       1  UNL1        0.0449
     69 H          -2.3882   -1.9941   -7.0314 H       1  UNL1        0.0572
     70 H          -2.0907   -2.5388   -5.5608 H       1  UNL1        0.0572
     71 H          -1.3410   -0.9227   -4.2509 H       1  UNL1        0.0583
     72 H          -2.2414    0.1627   -3.6764 H       1  UNL1        0.0583
     73 H          -2.8757   -2.2581   -2.7224 H       1  UNL1        0.0583
     74 H          -3.7459   -1.6355   -3.4874 H       1  UNL1        0.0583
     75 H          -3.6636   -2.7572   -5.9582 H       1  UNL1        0.0583
     76 H          -3.6554   -4.3417   -5.8406 H       1  UNL1        0.0583
     77 H          -5.4639   -2.0701   -5.6302 H       1  UNL1        0.0583
     78 H          -5.8028   -3.5171   -4.8129 H       1  UNL1        0.0583
     79 H          -3.8241   -1.9311   -1.5544 H       1  UNL1        0.0583
     80 H          -4.7664   -0.8636   -1.4035 H       1  UNL1        0.0583
     81 H          -4.3487   -3.3193   -0.1846 H       1  UNL1        0.0583
     82 H          -6.0916   -3.1973   -0.6120 H       1  UNL1        0.0583
     83 H          -5.0301   -3.6467   -3.1431 H       1  UNL1        0.0676
     84 H          -5.3919   -5.1892   -3.5965 H       1  UNL1        0.0676
     85 H          -6.6876   -2.0393   -3.6630 H       1  UNL1        0.2951
     86 H           0.0582   -3.9524   -3.1936 H       1  UNL1        0.0439
     87 H          -0.9594   -4.5065   -4.3938 H       1  UNL1        0.0439
     88 H          -1.9481   -4.7339   -1.8424 H       1  UNL1        0.0439
     89 H          -2.8219   -3.9342   -2.4357 H       1  UNL1        0.0439
@<TRIPOS>BOND
     1     1     2    1
     2     2     3    1
     3     3     4   ar
     4     4     5   ar
     5     5     6    1
     6     6     7   ar
     7     7     8   ar
     8     8     9    1
     9     8    10   ar
    10    10    11   ar
    11    11    12   ar
    12     6    12   ar
    13    12    13   ar
    14    13    14   ar
    15    14    15   ar
    16    15    16   ar
    17    11    16   ar
    18    10    17    2
    19     5    18   ar
    20    18    19   ar
    21    19    20    1
    22    20    21    1
    23     3    22   ar
    24    19    22   ar
    25    22    23    1
    26    23    24    1
    27    24    25    1
    28    25    26    1
    29    26    27    1
    30    27    28    1
    31    28    29    1
    32    29    30    1
    33    30    31    1
    34    31    32    1
    35    32    33    1
    36    33    34    1
    37    34    35    1
    38    35    36    1
    39    36    37    1
    40    37    38    1
    41    38    39    1
    42    39    40    1
    43    40    41    1
    44    41    42    1
    45    41    43    2
    46    27    44    1
    47    44    45    1
    48    24    45    1
    49     1    46    1
    50     1    47    1
    51     1    48    1
    52     4    49    1
    53     7    50    1
    54     9    51    1
    55     9    52    1
    56     9    53    1
    57    13    54    1
    58    14    55    1
    59    16    56    1
    60    18    57    1
    61    21    58    1
    62    21    59    1
    63    21    60    1
    64    23    61    1
    65    23    62    1
    66    25    63    1
    67    25    64    1
    68    26    65    1
    69    26    66    1
    70    28    67    1
    71    28    68    1
    72    29    69    1
    73    29    70    1
    74    31    71    1
    75    31    72    1
    76    32    73    1
    77    32    74    1
    78    34    75    1
    79    34    76    1
    80    35    77    1
    81    35    78    1
    82    37    79    1
    83    37    80    1
    84    38    81    1
    85    38    82    1
    86    40    83    1
    87    40    84    1
    88    42    85    1
    89    44    86    1
    90    44    87    1
    91    45    88    1
    92    45    89    1
