@<TRIPOS>MOLECULE
*****
 146 153 0 0 0
SMALL
GASTEIGER

@<TRIPOS>ATOM
      1 C          -5.6587   -8.4420   -2.4390 C.3     1  UNL1       -0.0212
      2 C          -5.1357   -9.0870   -3.6526 C.ar    1  UNL1        0.0531
      3 C          -3.7972   -9.0886   -4.0365 C.ar    1  UNL1        0.0418
      4 S          -3.7476   -9.6059   -5.7226 S.2     1  UNL1       -0.0752
      5 C          -5.3959  -10.0898   -5.5896 C.ar    1  UNL1        0.0655
      6 N          -6.0351   -9.6578   -4.5297 N.ar    1  UNL1       -0.2520
      7 C          -2.6121   -8.8301   -3.1175 C.ar    1  UNL1       -0.0061
      8 C          -1.4151   -7.9800   -3.4402 C.ar    1  UNL1       -0.0529
      9 C          -0.1734   -7.8739   -2.4001 C.ar    1  UNL1       -0.0530
     10 C          -0.2065   -8.6437   -0.9612 C.ar    1  UNL1        0.0113
     11 C           0.9029   -8.2804    0.0333 C.3     1  UNL1        0.0403
     12 N           2.2153   -8.5864   -0.4747 N.am    1  UNL1       -0.3095
     13 C           3.3361   -8.0341   -0.9760 C.2     1  UNL1        0.2339
     14 C           4.4184   -9.1014   -1.5076 C.3     1  UNL1        0.1047
     15 C           5.7963   -8.5511   -1.8752 C.3     1  UNL1        0.0018
     16 C           6.2618   -9.5095   -2.9709 C.3     1  UNL1        0.0731
     17 O           6.8028  -10.7190   -2.4205 O.3     1  UNL1       -0.3902
     18 C           4.9818   -9.8105   -3.7437 C.3     1  UNL1        0.0416
     19 N           3.9393   -9.8221   -2.7311 N.am    1  UNL1       -0.2858
     20 C           2.7653  -10.5184   -3.0245 C.2     1  UNL1        0.2371
     21 C           1.7391  -10.7619   -1.9210 C.3     1  UNL1        0.1045
     22 C           2.2473  -11.4190   -0.4881 C.3     1  UNL1       -0.0108
     23 C           3.2571  -12.3952   -1.0111 C.3     1  UNL1       -0.0579
     24 C           2.9283  -10.6515    0.7672 C.3     1  UNL1       -0.0579
     25 C           1.0817  -12.0886    0.2217 C.3     1  UNL1       -0.0579
     26 N           0.5971  -11.5261   -2.3381 N.am    1  UNL1       -0.3009
     27 C          -0.5821  -11.0001   -2.6199 C.2     1  UNL1        0.2508
     28 C          -1.8061  -11.7688   -2.6191 C.3     1  UNL1        0.1868
     29 F          -2.4987  -11.8639   -1.4253 F       1  UNL1       -0.2320
     30 C          -2.3651  -11.6017   -4.0057 C.3     1  UNL1       -0.0068
     31 C          -2.3511  -12.8759   -3.3132 C.3     1  UNL1       -0.0068
     32 O          -0.5713   -9.9406   -2.8841 O.2     1  UNL1       -0.2723
     33 O           2.4817  -10.8979   -4.1640 O.2     1  UNL1       -0.2735
     34 O           3.4496   -6.8237   -0.9692 O.2     1  UNL1       -0.2738
     35 C          -1.3165   -9.6672   -0.6803 C.ar    1  UNL1        0.1259
     36 O          -1.4579  -10.3644    0.6102 O.3     1  UNL1       -0.4893
     37 C          -2.7277  -11.1095    0.9775 C.3     1  UNL1        0.1128
     38 C          -4.2386  -10.4318    0.8186 C.3     1  UNL1        0.0818
     39 O          -4.4884   -9.3685   -0.1015 O.3     1  UNL1       -0.3742
     40 C          -3.3944   -8.4094   -0.1623 C.3     1  UNL1        0.0711
     41 C          -2.2603   -7.7483    0.6569 C.3     1  UNL1        0.0711
     42 O          -1.9814   -7.9626    2.0251 O.3     1  UNL1       -0.3752
     43 C          -3.2361   -8.4384    2.5246 C.3     1  UNL1        0.0711
     44 C          -4.7180   -7.6586    2.1012 C.3     1  UNL1        0.0716
     45 O          -5.1087   -7.1630    0.7388 O.3     1  UNL1       -0.3683
     46 C          -4.3466   -6.1348    0.0571 C.3     1  UNL1        0.1237
     47 C          -3.7684   -5.1421    1.0166 C.2     1  UNL1        0.2391
     48 N          -2.4480   -5.2578    1.4876 N.am    1  UNL1       -0.3081
     49 C          -2.0775   -4.2873    2.4189 C.3     1  UNL1        0.0486
     50 C          -0.5934   -4.2034    2.6845 C.3     1  UNL1        0.0189
     51 N          -0.7997   -2.6852    2.8850 N.3     1  UNL1       -0.2943
     52 C          -1.2901   -2.1270    4.1956 C.3     1  UNL1        0.0311
     53 C          -2.6395   -2.4919    4.7156 C.ar    1  UNL1        0.0498
     54 C          -3.7374   -1.6239    4.6050 C.ar    1  UNL1        0.1285
     55 O          -3.7575   -0.3581    4.0463 O.3     1  UNL1       -0.4947
     56 C          -2.5587    0.2238    3.5206 C.3     1  UNL1        0.0788
     57 C          -4.9736   -2.0993    5.0647 C.ar    1  UNL1       -0.0116
     58 C          -5.1755   -3.4601    5.3762 C.ar    1  UNL1       -0.0090
     59 C          -6.5534   -3.9919    5.4456 C.ar    1  UNL1        0.0065
     60 C          -7.4780   -3.9556    4.3051 C.ar    1  UNL1       -0.0007
     61 C          -8.7125   -4.5820    4.3733 C.ar    1  UNL1        0.0653
     62 C          -9.5104   -4.5726    3.2546 C.ar    1  UNL1        0.0405
     63 N          -9.0416   -4.2291    2.0345 N.ar    1  UNL1       -0.2625
     64 C          -7.7900   -3.7344    1.9856 C.ar    1  UNL1        0.0282
     65 C          -7.0897   -3.3754    3.1062 C.ar    1  UNL1       -0.0351
     66 C          -6.9756   -4.6349    6.5469 C.ar    1  UNL1        0.0159
     67 N          -8.2138   -5.2487    6.6411 N.ar    1  UNL1       -0.3171
     68 C          -8.5913   -5.9284    7.8583 C.3     1  UNL1        0.0147
     69 C          -9.1368   -5.2659    5.5972 C.ar    1  UNL1        0.2603
     70 O         -10.2292   -5.8235    5.6456 O.2     1  UNL1       -0.2670
     71 C          -4.0821   -4.3208    5.4354 C.ar    1  UNL1       -0.0116
     72 C          -2.7955   -3.8036    5.2414 C.ar    1  UNL1        0.1285
     73 O          -1.7747   -4.7361    5.3322 O.3     1  UNL1       -0.4947
     74 C          -0.4010   -4.3385    5.3683 C.3     1  UNL1        0.0788
     75 C          -1.9423   -2.8707    1.9276 C.3     1  UNL1        0.0189
     76 O          -4.5088   -4.2460    1.4063 O.2     1  UNL1       -0.2733
     77 C          -2.5654   -9.6748   -1.8093 C.ar    1  UNL1       -0.0113
     78 H          -6.0384   -7.4582   -2.6862 H       1  UNL1        0.0293
     79 H          -6.3348   -9.0535   -1.8430 H       1  UNL1        0.0293
     80 H          -4.8700   -8.1578   -1.7908 H       1  UNL1        0.0293
     81 H          -5.8959  -10.6329   -6.3792 H       1  UNL1        0.0907
     82 H          -1.2954   -7.7846   -4.5347 H       1  UNL1        0.0624
     83 H           0.8840   -7.9110   -2.9129 H       1  UNL1        0.0622
     84 H           0.9045   -7.2162    0.1449 H       1  UNL1        0.0513
     85 H           0.7166   -8.8563    0.9657 H       1  UNL1        0.0513
     86 H           2.2336   -9.5389   -0.5775 H       1  UNL1        0.1491
     87 H           4.7797   -9.8133   -0.7609 H       1  UNL1        0.0597
     88 H           6.4853   -8.5719   -1.0153 H       1  UNL1        0.0313
     89 H           5.6955   -7.5256   -2.2194 H       1  UNL1        0.0313
     90 H           7.0465   -9.0632   -3.5823 H       1  UNL1        0.0610
     91 H           6.0994  -11.2166   -1.9705 H       1  UNL1        0.2098
     92 H           4.7429   -9.0124   -4.4497 H       1  UNL1        0.0490
     93 H           5.0159  -10.7757   -4.2566 H       1  UNL1        0.0490
     94 H           1.3944   -9.7434   -1.9642 H       1  UNL1        0.0600
     95 H           4.0722  -11.8528   -1.4896 H       1  UNL1        0.0236
     96 H           3.6858  -12.9624   -0.2016 H       1  UNL1        0.0236
     97 H           2.7817  -13.0208   -1.7712 H       1  UNL1        0.0236
     98 H           2.2686   -9.9613    1.3080 H       1  UNL1        0.0236
     99 H           3.4097  -11.2297    1.5442 H       1  UNL1        0.0236
    100 H           3.7233  -10.0128    0.4663 H       1  UNL1        0.0236
    101 H           0.4355  -11.3169    0.6233 H       1  UNL1        0.0236
    102 H           0.5043  -12.7386   -0.4310 H       1  UNL1        0.0236
    103 H           1.4363  -12.6520    1.0818 H       1  UNL1        0.0236
    104 H           0.5125  -12.4635   -2.5454 H       1  UNL1        0.1496
    105 H          -3.3823  -11.3064   -4.1051 H       1  UNL1        0.0302
    106 H          -1.6494  -11.1400   -4.7008 H       1  UNL1        0.0302
    107 H          -1.5737  -13.5565   -3.0902 H       1  UNL1        0.0302
    108 H          -3.3352  -13.0086   -2.8261 H       1  UNL1        0.0302
    109 H          -2.7136  -12.0520    0.4537 H       1  UNL1        0.0720
    110 H          -2.6006  -11.3936    2.0468 H       1  UNL1        0.0720
    111 H          -5.0341  -11.0109    1.2834 H       1  UNL1        0.0594
    112 H          -4.4908   -9.7383    1.5653 H       1  UNL1        0.0594
    113 H          -2.8603   -9.1968    0.1245 H       1  UNL1        0.0583
    114 H          -3.2516   -7.9699   -1.1668 H       1  UNL1        0.0583
    115 H          -1.5479   -7.1488    0.0415 H       1  UNL1        0.0583
    116 H          -2.9227   -7.0697    0.9826 H       1  UNL1        0.0583
    117 H          -3.0311   -9.3606    2.0594 H       1  UNL1        0.0583
    118 H          -3.3004   -8.9581    3.4779 H       1  UNL1        0.0583
    119 H          -5.5574   -8.3308    2.3878 H       1  UNL1        0.0583
    120 H          -4.7527   -6.8000    2.7455 H       1  UNL1        0.0583
    121 H          -3.4296   -6.4195   -0.4463 H       1  UNL1        0.0656
    122 H          -4.6224   -5.9385   -0.9847 H       1  UNL1        0.0656
    123 H          -1.8363   -6.0796    1.6454 H       1  UNL1        0.1491
    124 H          -2.7756   -4.4667    3.2232 H       1  UNL1        0.0523
    125 H          -0.3465   -5.0273    3.3627 H       1  UNL1        0.0445
    126 H           0.2640   -4.4265    2.0369 H       1  UNL1        0.0445
    127 H          -0.6347   -2.0705    5.0744 H       1  UNL1        0.0478
    128 H          -1.1245   -1.0874    4.1044 H       1  UNL1        0.0478
    129 H          -1.8671    0.4416    4.3486 H       1  UNL1        0.0660
    130 H          -2.1308   -0.3821    2.7068 H       1  UNL1        0.0660
    131 H          -2.6886    1.2002    3.0643 H       1  UNL1        0.0660
    132 H          -5.8318   -1.4329    5.1172 H       1  UNL1        0.0660
    133 H         -10.5449   -4.8901    3.3077 H       1  UNL1        0.0837
    134 H          -7.3059   -3.6892    1.0152 H       1  UNL1        0.0830
    135 H          -6.2167   -2.7439    3.0103 H       1  UNL1        0.0639
    136 H          -6.3382   -4.7078    7.4216 H       1  UNL1        0.0816
    137 H          -9.5084   -5.4709    8.2411 H       1  UNL1        0.0457
    138 H          -8.7868   -6.9822    7.6344 H       1  UNL1        0.0457
    139 H          -7.7995   -5.8514    8.6053 H       1  UNL1        0.0457
    140 H          -4.2309   -5.3908    5.5830 H       1  UNL1        0.0660
    141 H          -0.0762   -3.7534    4.5407 H       1  UNL1        0.0660
    142 H          -0.1088   -3.5835    6.0794 H       1  UNL1        0.0660
    143 H           0.2740   -5.1767    5.1900 H       1  UNL1        0.0660
    144 H          -1.6196   -2.8376    0.8860 H       1  UNL1        0.0445
    145 H          -2.8390   -2.2648    2.0391 H       1  UNL1        0.0445
    146 H          -3.5337  -10.2819   -1.6146 H       1  UNL1        0.0660
@<TRIPOS>BOND
     1     1     2    1
     2     2     3   ar
     3     3     4   ar
     4     4     5   ar
     5     5     6   ar
     6     2     6   ar
     7     3     7    1
     8     7     8   ar
     9     8     9   ar
    10     9    10   ar
    11    10    11    1
    12    11    12    1
    13    12    13   am
    14    14    15    1
    15    15    16    1
    16    16    17    1
    17    16    18    1
    18    18    19    1
    19    14    19    1
    20    19    20   am
    21    22    23    1
    22    22    24    1
    23    22    25    1
    24    21    26    1
    25    26    27   am
    26    27    28    1
    27    28    29    1
    28    28    30    1
    29    30    31    1
    30    28    31    1
    31    27    32    2
    32    20    33    2
    33    13    34    2
    34    10    35   ar
    35    35    36    1
    36    36    37    1
    37    37    38    1
    38    38    39    1
    39    39    40    1
    40    40    41    1
    41    41    42    1
    42    42    43    1
    43    43    44    1
    44    44    45    1
    45    45    46    1
    46    46    47    1
    47    47    48   am
    48    48    49    1
    49    49    50    1
    50    50    51    1
    51    51    52    1
    52    52    53    1
    53    53    54   ar
    54    54    55    1
    55    55    56    1
    56    54    57   ar
    57    57    58   ar
    58    58    59    1
    59    59    60   ar
    60    60    61   ar
    61    61    62   ar
    62    62    63   ar
    63    63    64   ar
    64    64    65   ar
    65    60    65   ar
    66    59    66   ar
    67    66    67   ar
    68    67    68    1
    69    67    69   ar
    70    61    69   ar
    71    69    70    2
    72    58    71   ar
    73    71    72   ar
    74    53    72   ar
    75    72    73    1
    76    73    74    1
    77    51    75    1
    78    49    75    1
    79    47    76    2
    80    35    77   ar
    81     7    77   ar
    82     1    78    1
    83     1    79    1
    84     1    80    1
    85     5    81    1
    86     8    82    1
    87     9    83    1
    88    11    84    1
    89    11    85    1
    90    12    86    1
    91    15    88    1
    92    15    89    1
    93    16    90    1
    94    17    91    1
    95    18    92    1
    96    18    93    1
    97    21    94    1
    98    23    95    1
    99    23    96    1
   100    23    97    1
   101    24    98    1
   102    24    99    1
   103    24   100    1
   104    25   101    1
   105    25   102    1
   106    25   103    1
   107    26   104    1
   108    30   105    1
   109    30   106    1
   110    31   107    1
   111    31   108    1
   112    37   109    1
   113    37   110    1
   114    38   111    1
   115    38   112    1
   116    40   113    1
   117    40   114    1
   118    41   115    1
   119    41   116    1
   120    43   117    1
   121    43   118    1
   122    44   119    1
   123    44   120    1
   124    46   121    1
   125    46   122    1
   126    48   123    1
   127    49   124    1
   128    50   125    1
   129    50   126    1
   130    52   127    1
   131    52   128    1
   132    56   129    1
   133    56   130    1
   134    56   131    1
   135    57   132    1
   136    62   133    1
   137    64   134    1
   138    65   135    1
   139    66   136    1
   140    68   137    1
   141    68   138    1
   142    68   139    1
   143    71   140    1
   144    74   141    1
   145    74   142    1
   146    74   143    1
   147    75   144    1
   148    75   145    1
   149    77   146    1
   150    14    87    1
   151    14    13    1
   152    21    22    1
   153    21    20    1
