@<TRIPOS>MOLECULE
*****
 139 146 0 0 0
SMALL
GASTEIGER

@<TRIPOS>ATOM
      1 C          -5.6965   -8.4305   -2.4663 C.3     1  UNL1       -0.0212
      2 C          -5.1469   -9.0647   -3.6647 C.ar    1  UNL1        0.0531
      3 C          -3.7992   -9.0585   -4.0250 C.ar    1  UNL1        0.0418
      4 S          -3.7516   -9.5461   -5.7154 S.2     1  UNL1       -0.0752
      5 C          -5.3968  -10.0693   -5.6013 C.ar    1  UNL1        0.0655
      6 N          -6.0386   -9.6690   -4.5307 N.ar    1  UNL1       -0.2520
      7 C          -2.6053   -8.8025   -3.0961 C.ar    1  UNL1       -0.0061
      8 C          -1.4215   -7.9739   -3.4119 C.ar    1  UNL1       -0.0529
      9 C          -0.2275   -7.8725   -2.3881 C.ar    1  UNL1       -0.0530
     10 C          -0.2697   -8.5855   -0.9722 C.ar    1  UNL1        0.0113
     11 C           0.8707   -8.2324    0.0195 C.3     1  UNL1        0.0403
     12 N           2.2029   -8.5475   -0.4846 N.am    1  UNL1       -0.3095
     13 C           3.3401   -7.9985   -0.9759 C.2     1  UNL1        0.2339
     14 C           4.4093   -9.0883   -1.5168 C.3     1  UNL1        0.1047
     15 C           5.7932   -8.5415   -1.8835 C.3     1  UNL1        0.0018
     16 C           6.2621   -9.5041   -2.9748 C.3     1  UNL1        0.0731
     17 O           6.8055  -10.7079   -2.4141 O.3     1  UNL1       -0.3902
     18 C           4.9841   -9.8078   -3.7489 C.3     1  UNL1        0.0416
     19 N           3.9382   -9.8140   -2.7392 N.am    1  UNL1       -0.2858
     20 C           2.7768  -10.5296   -3.0301 C.2     1  UNL1        0.2371
     21 C           1.7472  -10.7866   -1.9172 C.3     1  UNL1        0.1045
     22 C           2.2554  -11.4295   -0.4814 C.3     1  UNL1       -0.0108
     23 C           3.2651  -12.4171   -0.9999 C.3     1  UNL1       -0.0579
     24 C           2.9335  -10.6720    0.7795 C.3     1  UNL1       -0.0579
     25 C           1.0772  -12.0973    0.2285 C.3     1  UNL1       -0.0579
     26 N           0.6184  -11.6016   -2.3280 N.am    1  UNL1       -0.3009
     27 C          -0.5607  -11.0553   -2.6113 C.2     1  UNL1        0.2508
     28 C          -1.8028  -11.8111   -2.6066 C.3     1  UNL1        0.1868
     29 F          -2.4993  -11.8937   -1.4186 F       1  UNL1       -0.2320
     30 C          -2.3715  -11.6396   -3.9944 C.3     1  UNL1       -0.0068
     31 C          -2.3362  -12.9284   -3.3225 C.3     1  UNL1       -0.0068
     32 O          -0.5240  -10.0045   -2.9730 O.2     1  UNL1       -0.2723
     33 O           2.5135  -10.9099   -4.1753 O.2     1  UNL1       -0.2735
     34 O           3.4931   -6.7903   -0.9872 O.2     1  UNL1       -0.2738
     35 C          -1.3797   -9.5692   -0.6951 C.ar    1  UNL1        0.1259
     36 O          -1.5317  -10.2573    0.5809 O.3     1  UNL1       -0.4893
     37 C          -2.7587  -11.0286    0.9418 C.3     1  UNL1        0.1128
     38 C          -4.2133  -10.4281    0.7390 C.3     1  UNL1        0.0818
     39 O          -4.4775   -9.1746    0.0177 O.3     1  UNL1       -0.3742
     40 C          -3.4960   -8.1664   -0.2266 C.3     1  UNL1        0.0712
     41 C          -2.6927   -7.1622    0.4824 C.3     1  UNL1        0.0716
     42 O          -2.2332   -7.7609    1.6777 O.3     1  UNL1       -0.3683
     43 C          -3.2642   -8.5086    2.3461 C.3     1  UNL1        0.1237
     44 C          -4.6469   -7.7534    2.1122 C.2     1  UNL1        0.2391
     45 N          -5.8039   -8.1896    1.3862 N.am    1  UNL1       -0.3081
     46 C          -6.9650   -7.3497    1.1019 C.3     1  UNL1        0.0486
     47 C          -6.8152   -5.9844    0.3699 C.3     1  UNL1        0.0189
     48 N          -8.2321   -6.0831   -0.0645 N.3     1  UNL1       -0.2945
     49 C          -9.1582   -5.4191    0.8911 C.3     1  UNL1        0.0277
     50 C          -9.3126   -6.0239    2.2682 C.ar    1  UNL1        0.0117
     51 C         -10.3390   -6.8408    2.7297 C.ar    1  UNL1        0.1253
     52 O         -11.4775   -7.2350    2.0718 O.3     1  UNL1       -0.4948
     53 C         -11.6971   -6.7891    0.7349 C.3     1  UNL1        0.0788
     54 C         -10.1828   -7.3887    4.0172 C.ar    1  UNL1       -0.0084
     55 C          -8.9602   -7.3322    4.7233 C.ar    1  UNL1        0.0292
     56 C          -8.7441   -8.1658    5.9133 C.ar    1  UNL1        0.0099
     57 C          -8.7534   -9.6313    5.9413 C.ar    1  UNL1       -0.0006
     58 C          -8.3602  -10.3014    7.0944 C.ar    1  UNL1        0.0653
     59 C          -8.3275  -11.6770    7.0765 C.ar    1  UNL1        0.0405
     60 N          -8.4054  -12.3889    5.9294 N.ar    1  UNL1       -0.2625
     61 C          -8.6846  -11.6961    4.8067 C.ar    1  UNL1        0.0282
     62 C          -9.0581  -10.3725    4.8063 C.ar    1  UNL1       -0.0351
     63 C          -8.3460   -7.5261    7.0232 C.ar    1  UNL1        0.0160
     64 N          -7.9580   -8.1729    8.1724 N.ar    1  UNL1       -0.3171
     65 C          -7.5219   -7.3927    9.3047 C.3     1  UNL1        0.0147
     66 C          -7.9428   -9.5577    8.2913 C.ar    1  UNL1        0.2603
     67 O          -7.5883  -10.1619    9.2987 O.2     1  UNL1       -0.2670
     68 C          -7.9308   -6.5334    4.2584 C.ar    1  UNL1        0.1284
     69 O          -6.7365   -6.5186    4.9380 O.3     1  UNL1       -0.4945
     70 C          -5.7547   -5.6327    4.4375 C.3     1  UNL1        0.0788
     71 C          -8.1831   -5.8176    3.1028 C.ar    1  UNL1       -0.0115
     72 C          -8.1359   -7.5778    0.1049 C.3     1  UNL1        0.0189
     73 O          -4.5042   -6.5461    2.3023 O.2     1  UNL1       -0.2733
     74 C          -2.5689   -9.6089   -1.7911 C.ar    1  UNL1       -0.0113
     75 H          -6.0948   -7.4522   -2.7070 H       1  UNL1        0.0293
     76 H          -6.3449   -9.0695   -1.8718 H       1  UNL1        0.0293
     77 H          -4.9254   -8.1382   -1.8126 H       1  UNL1        0.0293
     78 H          -5.8965  -10.6293   -6.3849 H       1  UNL1        0.0907
     79 H          -1.2732   -7.7648   -4.4994 H       1  UNL1        0.0624
     80 H           0.8306   -7.8374   -2.8671 H       1  UNL1        0.0622
     81 H           0.8875   -7.1699    0.1794 H       1  UNL1        0.0513
     82 H           0.7190   -8.8105    0.9553 H       1  UNL1        0.0513
     83 H           2.2401   -9.5056   -0.5616 H       1  UNL1        0.1491
     84 H           4.7512   -9.8163   -0.7803 H       1  UNL1        0.0597
     85 H           6.4783   -8.5631   -1.0214 H       1  UNL1        0.0313
     86 H           5.7020   -7.5158   -2.2345 H       1  UNL1        0.0313
     87 H           7.0460   -9.0624   -3.5910 H       1  UNL1        0.0610
     88 H           6.0993  -11.2127   -1.9766 H       1  UNL1        0.2098
     89 H           4.7424   -9.0097   -4.4538 H       1  UNL1        0.0490
     90 H           5.0184  -10.7748   -4.2609 H       1  UNL1        0.0490
     91 H           1.3762   -9.7722   -1.9513 H       1  UNL1        0.0600
     92 H           4.0852  -11.8805   -1.4778 H       1  UNL1        0.0236
     93 H           3.6913  -12.9927   -0.1935 H       1  UNL1        0.0236
     94 H           2.7968  -13.0466   -1.7622 H       1  UNL1        0.0236
     95 H           2.2606  -10.0049    1.3354 H       1  UNL1        0.0236
     96 H           3.4015  -11.2861    1.5445 H       1  UNL1        0.0236
     97 H           3.7377  -10.0270    0.5046 H       1  UNL1        0.0236
     98 H           0.4187  -11.3249    0.6209 H       1  UNL1        0.0236
     99 H           0.5001  -12.7586   -0.4150 H       1  UNL1        0.0236
    100 H           1.4270  -12.6675    1.0874 H       1  UNL1        0.0236
    101 H           0.5795  -12.5476   -2.5565 H       1  UNL1        0.1496
    102 H          -3.3858  -11.3288   -4.1047 H       1  UNL1        0.0302
    103 H          -1.6544  -11.1922   -4.6946 H       1  UNL1        0.0302
    104 H          -1.5587  -13.6242   -3.1350 H       1  UNL1        0.0302
    105 H          -3.3251  -13.0975   -2.8679 H       1  UNL1        0.0302
    106 H          -2.7303  -12.0093    0.4718 H       1  UNL1        0.0720
    107 H          -2.6490  -11.3304    2.0138 H       1  UNL1        0.0720
    108 H          -4.8153  -10.5683    1.6687 H       1  UNL1        0.0594
    109 H          -4.8879  -11.0393    0.1446 H       1  UNL1        0.0594
    110 H          -2.8359   -8.8532    0.1190 H       1  UNL1        0.0583
    111 H          -3.3869   -7.7924   -1.2405 H       1  UNL1        0.0583
    112 H          -1.8079   -6.8958   -0.1163 H       1  UNL1        0.0583
    113 H          -3.3964   -6.3512    0.4910 H       1  UNL1        0.0583
    114 H          -2.5580   -8.3157    3.1553 H       1  UNL1        0.0656
    115 H          -3.4294   -9.2890    3.1177 H       1  UNL1        0.0656
    116 H          -5.7532   -8.9441    0.6951 H       1  UNL1        0.1491
    117 H          -7.4047   -7.4896    2.0650 H       1  UNL1        0.0523
    118 H          -6.5450   -5.0876    0.9344 H       1  UNL1        0.0445
    119 H          -6.1272   -5.9867   -0.4819 H       1  UNL1        0.0445
    120 H          -8.9481   -4.3496    1.0293 H       1  UNL1        0.0477
    121 H         -10.0885   -5.3320    0.3599 H       1  UNL1        0.0477
    122 H         -11.8351   -5.7029    0.7269 H       1  UNL1        0.0660
    123 H         -10.9110   -7.1403    0.0543 H       1  UNL1        0.0660
    124 H         -12.6245   -7.1851    0.3210 H       1  UNL1        0.0660
    125 H         -11.0143   -7.8951    4.4999 H       1  UNL1        0.0661
    126 H          -8.1969  -12.2428    7.9928 H       1  UNL1        0.0837
    127 H          -8.5347  -12.2189    3.8678 H       1  UNL1        0.0830
    128 H          -9.4998   -9.9295    3.9228 H       1  UNL1        0.0639
    129 H          -8.2677   -6.4411    7.0299 H       1  UNL1        0.0816
    130 H          -8.1798   -7.6254   10.1451 H       1  UNL1        0.0457
    131 H          -6.4951   -7.6719    9.5582 H       1  UNL1        0.0457
    132 H          -7.5681   -6.3231    9.0841 H       1  UNL1        0.0457
    133 H          -5.6744   -5.8912    3.4247 H       1  UNL1        0.0660
    134 H          -6.0442   -4.5864    4.3418 H       1  UNL1        0.0660
    135 H          -4.7838   -5.7681    4.9246 H       1  UNL1        0.0660
    136 H          -7.3564   -5.2845    2.6584 H       1  UNL1        0.0658
    137 H          -7.9417   -8.0914   -0.8388 H       1  UNL1        0.0445
    138 H          -9.0314   -8.0684    0.5092 H       1  UNL1        0.0445
    139 H          -3.5126  -10.2213   -1.5879 H       1  UNL1        0.0660
@<TRIPOS>BOND
     1     1     2    1
     2     2     3   ar
     3     3     4   ar
     4     4     5   ar
     5     5     6   ar
     6     2     6   ar
     7     3     7    1
     8     7     8   ar
     9     8     9   ar
    10     9    10   ar
    11    10    11    1
    12    11    12    1
    13    12    13   am
    14    14    15    1
    15    15    16    1
    16    16    17    1
    17    16    18    1
    18    18    19    1
    19    14    19    1
    20    19    20   am
    21    22    23    1
    22    22    24    1
    23    22    25    1
    24    21    26    1
    25    26    27   am
    26    27    28    1
    27    28    29    1
    28    28    30    1
    29    30    31    1
    30    28    31    1
    31    27    32    2
    32    20    33    2
    33    13    34    2
    34    10    35   ar
    35    35    36    1
    36    36    37    1
    37    37    38    1
    38    38    39    1
    39    39    40    1
    40    40    41    1
    41    41    42    1
    42    42    43    1
    43    43    44    1
    44    44    45   am
    45    45    46    1
    46    46    47    1
    47    47    48    1
    48    48    49    1
    49    49    50    1
    50    50    51   ar
    51    51    52    1
    52    52    53    1
    53    51    54   ar
    54    54    55   ar
    55    55    56    1
    56    56    57   ar
    57    57    58   ar
    58    58    59   ar
    59    59    60   ar
    60    60    61   ar
    61    61    62   ar
    62    57    62   ar
    63    56    63   ar
    64    63    64   ar
    65    64    65    1
    66    64    66   ar
    67    58    66   ar
    68    66    67    2
    69    55    68   ar
    70    68    69    1
    71    69    70    1
    72    68    71   ar
    73    50    71   ar
    74    48    72    1
    75    46    72    1
    76    44    73    2
    77    35    74   ar
    78     7    74   ar
    79     1    75    1
    80     1    76    1
    81     1    77    1
    82     5    78    1
    83     8    79    1
    84     9    80    1
    85    11    81    1
    86    11    82    1
    87    12    83    1
    88    15    85    1
    89    15    86    1
    90    16    87    1
    91    17    88    1
    92    18    89    1
    93    18    90    1
    94    21    91    1
    95    23    92    1
    96    23    93    1
    97    23    94    1
    98    24    95    1
    99    24    96    1
   100    24    97    1
   101    25    98    1
   102    25    99    1
   103    25   100    1
   104    26   101    1
   105    30   102    1
   106    30   103    1
   107    31   104    1
   108    31   105    1
   109    37   106    1
   110    37   107    1
   111    38   108    1
   112    38   109    1
   113    40   110    1
   114    40   111    1
   115    41   112    1
   116    41   113    1
   117    43   114    1
   118    43   115    1
   119    45   116    1
   120    46   117    1
   121    47   118    1
   122    47   119    1
   123    49   120    1
   124    49   121    1
   125    53   122    1
   126    53   123    1
   127    53   124    1
   128    54   125    1
   129    59   126    1
   130    61   127    1
   131    62   128    1
   132    63   129    1
   133    65   130    1
   134    65   131    1
   135    65   132    1
   136    70   133    1
   137    70   134    1
   138    70   135    1
   139    71   136    1
   140    72   137    1
   141    72   138    1
   142    74   139    1
   143    14    84    1
   144    14    13    1
   145    21    22    1
   146    21    20    1
