@<TRIPOS>MOLECULE
*****
 85 88 0 0 0
SMALL
GASTEIGER

@<TRIPOS>ATOM
      1 C          -5.6671   -8.2275   -2.4678 C.3     1  UNL1       -0.0212
      2 C          -5.0892   -8.8776   -3.6497 C.ar    1  UNL1        0.0531
      3 C          -3.7178   -8.8596   -3.9280 C.ar    1  UNL1        0.0418
      4 S          -3.6545   -9.3315   -5.6312 S.2     1  UNL1       -0.0752
      5 C          -5.2825   -9.9722   -5.5530 C.ar    1  UNL1        0.0655
      6 N          -5.9321   -9.6343   -4.4621 N.ar    1  UNL1       -0.2520
      7 C          -2.5504   -8.4455   -2.9621 C.ar    1  UNL1       -0.0061
      8 C          -1.3893   -7.7978   -3.3106 C.ar    1  UNL1       -0.0529
      9 C          -0.3020   -7.6921   -2.3138 C.ar    1  UNL1       -0.0530
     10 C          -0.3442   -8.1954   -0.9228 C.ar    1  UNL1        0.0113
     11 C           0.8702   -8.0469   -0.0038 C.3     1  UNL1        0.0403
     12 N           2.1542   -8.4621   -0.5730 N.am    1  UNL1       -0.3095
     13 C           3.3337   -7.9402   -1.0132 C.2     1  UNL1        0.2339
     14 C           4.3798   -9.0563   -1.5439 C.3     1  UNL1        0.1047
     15 C           5.7771   -8.5208   -1.8988 C.3     1  UNL1        0.0018
     16 C           6.2562   -9.4882   -2.9803 C.3     1  UNL1        0.0731
     17 O           6.8065  -10.6772   -2.3974 O.3     1  UNL1       -0.3902
     18 C           4.9800   -9.7961   -3.7570 C.3     1  UNL1        0.0416
     19 N           3.9250   -9.7905   -2.7516 N.am    1  UNL1       -0.2858
     20 C           2.7928  -10.5486   -3.0149 C.2     1  UNL1        0.2371
     21 C           1.7796  -10.8816   -1.8775 C.3     1  UNL1        0.1045
     22 C           2.2789  -11.4813   -0.4625 C.3     1  UNL1       -0.0108
     23 C           3.2964  -12.4823   -0.9616 C.3     1  UNL1       -0.0579
     24 C           2.9364  -10.7095    0.7815 C.3     1  UNL1       -0.0579
     25 C           1.0726  -12.1222    0.2537 C.3     1  UNL1       -0.0579
     26 N           0.6953  -11.7526   -2.3535 N.am    1  UNL1       -0.3009
     27 C          -0.4380  -11.0954   -2.6942 C.2     1  UNL1        0.2508
     28 C          -1.7355  -11.7382   -2.6463 C.3     1  UNL1        0.1868
     29 F          -2.3552  -11.5860   -1.4515 F       1  UNL1       -0.2320
     30 C          -2.3992  -11.6480   -3.9824 C.3     1  UNL1       -0.0068
     31 C          -2.3076  -12.9306   -3.2590 C.3     1  UNL1       -0.0068
     32 O          -0.3653   -9.9957   -3.0245 O.2     1  UNL1       -0.2723
     33 O           2.5560  -10.9288   -4.1685 O.2     1  UNL1       -0.2735
     34 O           3.5601   -6.7409   -0.9794 O.2     1  UNL1       -0.2738
     35 C          -1.4750   -8.9401   -0.5610 C.ar    1  UNL1        0.1257
     36 O          -1.5221   -9.7623    0.5861 O.3     1  UNL1       -0.4916
     37 C          -2.6057  -10.6894    1.0510 C.3     1  UNL1        0.0896
     38 C          -3.9549  -10.0075    1.3173 C.3     1  UNL1       -0.0181
     39 C          -4.6508   -9.5508    0.0595 C.3     1  UNL1       -0.0399
     40 C          -4.8443  -10.7383   -0.9532 C.3     1  UNL1        0.0449
     41 C          -6.0134  -11.5727   -0.6638 C.2     1  UNL1        0.3047
     42 O          -6.8967  -11.6487   -1.6732 O.3     1  UNL1       -0.4806
     43 O          -6.0813  -12.2098    0.3761 O.2     1  UNL1       -0.2510
     44 C          -2.4440   -8.9832   -1.6133 C.ar    1  UNL1       -0.0114
     45 H          -6.1413   -7.2928   -2.7321 H       1  UNL1        0.0293
     46 H          -6.3682   -8.8816   -1.9466 H       1  UNL1        0.0293
     47 H          -4.8518   -7.9631   -1.8047 H       1  UNL1        0.0293
     48 H          -5.7663  -10.5666   -6.3370 H       1  UNL1        0.0907
     49 H          -1.1795   -7.7285   -4.3824 H       1  UNL1        0.0624
     50 H           0.7060   -7.6538   -2.7643 H       1  UNL1        0.0622
     51 H           0.9744   -7.0268    0.3266 H       1  UNL1        0.0513
     52 H           0.7192   -8.7065    0.8733 H       1  UNL1        0.0513
     53 H           2.2072   -9.4304   -0.5115 H       1  UNL1        0.1491
     54 H           4.6658   -9.8102   -0.8178 H       1  UNL1        0.0597
     55 H           6.4491   -8.5413   -1.0284 H       1  UNL1        0.0313
     56 H           5.7094   -7.4970   -2.2665 H       1  UNL1        0.0313
     57 H           7.0391   -9.0548   -3.6054 H       1  UNL1        0.0610
     58 H           6.0952  -11.2033   -1.9955 H       1  UNL1        0.2098
     59 H           4.7427   -9.0018   -4.4680 H       1  UNL1        0.0490
     60 H           5.0205  -10.7660   -4.2648 H       1  UNL1        0.0490
     61 H           1.3077   -9.9141   -1.8210 H       1  UNL1        0.0600
     62 H           4.1243  -11.9530   -1.4407 H       1  UNL1        0.0236
     63 H           3.7084  -13.0707   -0.1549 H       1  UNL1        0.0236
     64 H           2.8440  -13.1220   -1.7253 H       1  UNL1        0.0236
     65 H           2.2302  -10.0756    1.3367 H       1  UNL1        0.0236
     66 H           3.3665  -11.3758    1.5321 H       1  UNL1        0.0236
     67 H           3.7545  -10.0471    0.5661 H       1  UNL1        0.0236
     68 H           0.3889  -11.3386    0.6017 H       1  UNL1        0.0236
     69 H           0.5007  -12.8118   -0.3650 H       1  UNL1        0.0236
     70 H           1.4069  -12.6817    1.1276 H       1  UNL1        0.0236
     71 H           0.7503  -12.7269   -2.5612 H       1  UNL1        0.1496
     72 H          -3.4140  -11.3159   -4.0713 H       1  UNL1        0.0302
     73 H          -1.7159  -11.2778   -4.7490 H       1  UNL1        0.0302
     74 H          -1.5462  -13.6741   -3.2196 H       1  UNL1        0.0302
     75 H          -3.2684  -13.1775   -2.7977 H       1  UNL1        0.0302
     76 H          -2.6899  -11.6209    0.4752 H       1  UNL1        0.0696
     77 H          -2.3122  -11.1283    2.0261 H       1  UNL1        0.0696
     78 H          -4.6701  -10.6432    1.8424 H       1  UNL1        0.0298
     79 H          -3.7330   -9.1391    1.9429 H       1  UNL1        0.0298
     80 H          -5.5789   -8.9974    0.1951 H       1  UNL1        0.0271
     81 H          -4.0180   -8.6927   -0.1906 H       1  UNL1        0.0271
     82 H          -4.7817  -10.5138   -2.0190 H       1  UNL1        0.0377
     83 H          -4.0986  -11.5169   -0.8853 H       1  UNL1        0.0377
     84 H          -6.6532  -11.1486   -2.4842 H       1  UNL1        0.2951
     85 H          -3.0992   -9.7778   -1.4409 H       1  UNL1        0.0660
@<TRIPOS>BOND
     1     1     2    1
     2     2     3   ar
     3     3     4   ar
     4     4     5   ar
     5     5     6   ar
     6     2     6   ar
     7     3     7    1
     8     7     8   ar
     9     8     9   ar
    10     9    10   ar
    11    10    11    1
    12    11    12    1
    13    12    13   am
    14    14    15    1
    15    15    16    1
    16    16    17    1
    17    16    18    1
    18    18    19    1
    19    14    19    1
    20    19    20   am
    21    22    23    1
    22    22    24    1
    23    22    25    1
    24    21    26    1
    25    26    27   am
    26    27    28    1
    27    28    29    1
    28    28    30    1
    29    30    31    1
    30    28    31    1
    31    27    32    2
    32    20    33    2
    33    13    34    2
    34    10    35   ar
    35    35    36    1
    36    36    37    1
    37    37    38    1
    38    38    39    1
    39    39    40    1
    40    40    41    1
    41    41    42    1
    42    41    43    2
    43    35    44   ar
    44     7    44   ar
    45     1    45    1
    46     1    46    1
    47     1    47    1
    48     5    48    1
    49     8    49    1
    50     9    50    1
    51    11    51    1
    52    11    52    1
    53    12    53    1
    54    15    55    1
    55    15    56    1
    56    16    57    1
    57    17    58    1
    58    18    59    1
    59    18    60    1
    60    21    61    1
    61    23    62    1
    62    23    63    1
    63    23    64    1
    64    24    65    1
    65    24    66    1
    66    24    67    1
    67    25    68    1
    68    25    69    1
    69    25    70    1
    70    26    71    1
    71    30    72    1
    72    30    73    1
    73    31    74    1
    74    31    75    1
    75    37    76    1
    76    37    77    1
    77    38    78    1
    78    38    79    1
    79    39    80    1
    80    39    81    1
    81    40    82    1
    82    40    83    1
    83    42    84    1
    84    44    85    1
    85    14    54    1
    86    14    13    1
    87    21    22    1
    88    21    20    1
