@<TRIPOS>MOLECULE
*****
 49 50 0 0 0
SMALL
GASTEIGER

@<TRIPOS>ATOM
      1 BR         -1.5612    0.0664   -0.0404 Br      1  UNL1       -0.0501
      2 C           0.3311    0.0359    0.0082 C.ar    1  UNL1        0.0248
      3 C           1.0555    1.2256    0.1075 C.ar    1  UNL1       -0.0054
      4 C           2.4557    1.2117    0.2321 C.ar    1  UNL1        0.1290
      5 O           3.0034    2.4471    0.4790 O.3     1  UNL1       -0.4946
      6 C           4.3642    2.6561    0.8777 C.3     1  UNL1        0.0788
      7 C           3.1254   -0.0085    0.0492 C.ar    1  UNL1        0.0498
      8 C           4.6155   -0.0550   -0.1963 C.3     1  UNL1        0.0311
      9 N           5.1490    0.5748   -1.4375 N.3     1  UNL1       -0.2943
     10 C           4.3474    0.2529   -2.6506 C.3     1  UNL1        0.0190
     11 C           4.8444    1.6088   -3.2256 C.3     1  UNL1        0.0516
     12 N           3.8882    2.4158   -3.9919 N.am    1  UNL1       -0.2758
     13 C           4.2999    3.1853   -5.0417 C.2     1  UNL1        0.4011
     14 O           3.3696    3.9090   -5.7083 O.3     1  UNL1       -0.4447
     15 C           1.9568    3.9973   -5.4000 C.3     1  UNL1        0.1068
     16 C           1.2889    2.6165   -5.4362 C.3     1  UNL1       -0.0253
     17 C           1.7749    4.7663   -4.0873 C.3     1  UNL1       -0.0253
     18 C           1.3165    4.8359   -6.5223 C.3     1  UNL1       -0.0253
     19 O           5.4879    3.2267   -5.3924 O.2     1  UNL1       -0.2265
     20 C           4.8816    2.0201   -1.7719 C.3     1  UNL1        0.0190
     21 C           2.3754   -1.2234    0.0047 C.ar    1  UNL1        0.1290
     22 O           3.0943   -2.3956   -0.0285 O.3     1  UNL1       -0.4946
     23 C           2.3709   -3.6245   -0.0297 C.3     1  UNL1        0.0788
     24 C           0.9811   -1.1901   -0.0009 C.ar    1  UNL1       -0.0054
     25 H           0.5243    2.1746    0.0996 H       1  UNL1        0.0665
     26 H           4.5559    2.3847    1.9107 H       1  UNL1        0.0660
     27 H           5.1268    2.1161    0.3421 H       1  UNL1        0.0660
     28 H           4.6376    3.6878    0.6299 H       1  UNL1        0.0660
     29 H           5.1076    0.2836    0.7264 H       1  UNL1        0.0478
     30 H           4.9684   -1.0930   -0.2100 H       1  UNL1        0.0478
     31 H           4.6855   -0.6285   -3.1910 H       1  UNL1        0.0445
     32 H           3.2616    0.1937   -2.4997 H       1  UNL1        0.0445
     33 H           5.8563    1.6181   -3.6370 H       1  UNL1        0.0524
     34 H           2.9799    2.5788   -3.5828 H       1  UNL1        0.1524
     35 H           1.6854    1.8975   -4.7205 H       1  UNL1        0.0268
     36 H           0.2189    2.6939   -5.2320 H       1  UNL1        0.0268
     37 H           1.4408    2.1471   -6.4155 H       1  UNL1        0.0268
     38 H           2.2343    5.7602   -4.1637 H       1  UNL1        0.0268
     39 H           0.7168    4.8819   -3.8419 H       1  UNL1        0.0268
     40 H           2.2636    4.2974   -3.2319 H       1  UNL1        0.0268
     41 H           1.7711    5.8305   -6.5933 H       1  UNL1        0.0268
     42 H           1.4508    4.3619   -7.5017 H       1  UNL1        0.0268
     43 H           0.2419    4.9602   -6.3466 H       1  UNL1        0.0268
     44 H           3.9185    2.4836   -1.5300 H       1  UNL1        0.0445
     45 H           5.6767    2.7472   -1.5626 H       1  UNL1        0.0445
     46 H           1.7549   -3.7270    0.8708 H       1  UNL1        0.0660
     47 H           1.7645   -3.7177   -0.9366 H       1  UNL1        0.0660
     48 H           3.0935   -4.4467   -0.0287 H       1  UNL1        0.0660
     49 H           0.3871   -2.0981   -0.0311 H       1  UNL1        0.0665
@<TRIPOS>BOND
     1     1     2    1
     2     2     3   ar
     3     3     4   ar
     4     4     5    1
     5     5     6    1
     6     4     7   ar
     7     7     8    1
     8     8     9    1
     9     9    10    1
    10    10    11    1
    11    11    12    1
    12    12    13   am
    13    13    14    1
    14    14    15    1
    15    15    16    1
    16    15    17    1
    17    15    18    1
    18    13    19    2
    19    11    20    1
    20     9    20    1
    21     7    21   ar
    22    21    22    1
    23    22    23    1
    24    21    24   ar
    25     2    24   ar
    26     3    25    1
    27     6    26    1
    28     6    27    1
    29     6    28    1
    30     8    29    1
    31     8    30    1
    32    10    31    1
    33    10    32    1
    34    11    33    1
    35    12    34    1
    36    16    35    1
    37    16    36    1
    38    16    37    1
    39    17    38    1
    40    17    39    1
    41    17    40    1
    42    18    41    1
    43    18    42    1
    44    18    43    1
    45    20    44    1
    46    20    45    1
    47    23    46    1
    48    23    47    1
    49    23    48    1
    50    24    49    1
