@<TRIPOS>MOLECULE
*****
 157 164 0 0 0
SMALL
GASTEIGER

@<TRIPOS>ATOM
      1 C           1.4238   -1.5228   -2.1222 C.3     1  UNL1        0.0788
      2 O          -0.1370   -1.5216   -1.7202 O.3     1  UNL1       -0.4947
      3 C          -0.8187   -2.2808   -0.7353 C.ar    1  UNL1        0.1285
      4 C          -2.0464   -3.0741   -0.7029 C.ar    1  UNL1       -0.0116
      5 C          -2.7484   -4.0041    0.7833 C.ar    1  UNL1       -0.0090
      6 C          -4.2188   -3.7221    0.6473 C.ar    1  UNL1        0.0065
      7 C          -4.5743   -4.7117   -0.1770 C.ar    1  UNL1       -0.0007
      8 C          -5.8916   -4.7885   -0.2515 C.ar    1  UNL1        0.0653
      9 C          -6.1660   -5.8976   -0.8825 C.ar    1  UNL1        0.0405
     10 N          -5.2836   -6.9291   -1.0334 N.ar    1  UNL1       -0.2625
     11 C          -4.0043   -6.7807   -0.7001 C.ar    1  UNL1        0.0282
     12 C          -3.5632   -5.5685   -0.6077 C.ar    1  UNL1       -0.0351
     13 C          -5.1299   -2.7598    0.9993 C.ar    1  UNL1        0.0159
     14 N          -6.4147   -2.7383    0.8757 N.ar    1  UNL1       -0.3171
     15 C          -7.1968   -1.6542    1.4627 C.3     1  UNL1        0.0147
     16 C          -6.8762   -3.8091    0.2415 C.ar    1  UNL1        0.2603
     17 O          -8.0634   -3.9698    0.0830 O.2     1  UNL1       -0.2670
     18 C          -2.1504   -4.1277    2.4757 C.ar    1  UNL1       -0.0116
     19 C          -0.7292   -3.5252    2.4934 C.ar    1  UNL1        0.1285
     20 O          -0.8046   -2.8325    4.2496 O.3     1  UNL1       -0.4947
     21 C           0.6819   -2.2877    5.2946 C.3     1  UNL1        0.0788
     22 C          -0.1171   -2.5646    0.8031 C.ar    1  UNL1        0.0498
     23 C           0.9962   -2.0345    1.3291 C.3     1  UNL1        0.0311
     24 N           0.9781    0.1352    1.4238 N.3     1  UNL1       -0.2955
     25 C           0.1067    0.8865    0.1915 C.3     1  UNL1        0.0120
     26 C          -1.5304    0.9277    0.4925 C.3     1  UNL1        0.0118
     27 N          -2.0078    0.9893    2.3291 N.3     1  UNL1       -0.2977
     28 C          -2.2490    2.2731    2.9989 C.3     1  UNL1        0.0224
     29 C          -1.1460    3.2528    3.1423 C.3     1  UNL1        0.0605
     30 O          -0.2148    3.7002    2.2361 O.3     1  UNL1       -0.3762
     31 C           0.0367    2.5874    1.6214 C.3     1  UNL1        0.0711
     32 C           0.7262    1.7993    2.6381 C.3     1  UNL1        0.0711
     33 O           0.0049    1.6584    4.3652 O.3     1  UNL1       -0.3752
     34 C           0.7760    2.3181    5.1567 C.3     1  UNL1        0.0711
     35 C           1.9384    2.7700    4.2713 C.3     1  UNL1        0.0711
     36 O           2.8997    2.4614    3.1479 O.3     1  UNL1       -0.3752
     37 C           3.5123    1.2954    2.5058 C.3     1  UNL1        0.0711
     38 C           3.8539    0.2324    3.5884 C.3     1  UNL1        0.0711
     39 O           3.9316   -0.2158    5.4324 O.3     1  UNL1       -0.3742
     40 C           3.3314    0.8528    5.9521 C.3     1  UNL1        0.0818
     41 C           4.5459    1.6598    5.5754 C.3     1  UNL1        0.1128
     42 O           5.4010    1.7065    4.0371 O.3     1  UNL1       -0.4893
     43 C           5.8835    0.1915    3.3550 C.ar    1  UNL1        0.1259
     44 C           6.6107    0.2558    2.2826 C.ar    1  UNL1       -0.0113
     45 C           6.4029   -0.8473    1.3866 C.ar    1  UNL1       -0.0061
     46 C           7.3650   -0.9589    0.4163 C.ar    1  UNL1        0.0418
     47 C           7.1565   -0.8333   -0.9141 C.ar    1  UNL1        0.0531
     48 C           5.8881   -0.4781   -1.5929 C.3     1  UNL1       -0.0212
     49 N           8.2969   -1.1048   -1.5993 N.ar    1  UNL1       -0.2520
     50 C           9.2526   -1.4258   -0.7470 C.ar    1  UNL1        0.0655
     51 S           8.8926   -1.4480    0.9067 S.2     1  UNL1       -0.0752
     52 C           5.5608   -1.9896    1.2899 C.ar    1  UNL1       -0.0529
     53 C           4.9769   -2.3737    2.4397 C.ar    1  UNL1       -0.0530
     54 C           5.0428   -1.3548    3.6636 C.ar    1  UNL1        0.0113
     55 C           3.0367   -1.3124    4.3168 C.3     1  UNL1        0.0403
     56 N           1.9173   -0.8129    3.4570 N.am    1  UNL1       -0.3095
     57 C           0.4530   -1.7887    3.3248 C.2     1  UNL1        0.2339
     58 C          -1.5860   -1.5299    2.5806 C.3     1  UNL1        0.1047
     59 C          -2.9217   -0.8910    3.1818 C.3     1  UNL1        0.0018
     60 C          -3.6695   -0.7865    1.9822 C.3     1  UNL1        0.0731
     61 O          -3.8643    0.0996    0.9141 O.3     1  UNL1       -0.3902
     62 C          -3.1014   -1.9808    1.3447 C.3     1  UNL1        0.0416
     63 N          -1.7647   -2.5186    1.2917 N.am    1  UNL1       -0.2858
     64 C          -0.5524   -4.1015    0.6435 C.2     1  UNL1        0.2371
     65 C           1.4657   -3.3558    0.3944 C.3     1  UNL1        0.1045
     66 C           1.9657   -1.0201    0.6314 C.3     1  UNL1       -0.0108
     67 C           2.9351   -1.4804    1.6079 C.3     1  UNL1       -0.0579
     68 C           2.3204    0.1134   -0.2429 C.3     1  UNL1       -0.0579
     69 C          -0.2069   -0.9044    1.3337 C.3     1  UNL1       -0.0579
     70 N           1.4296   -3.3031   -0.9461 N.am    1  UNL1       -0.3009
     71 C           2.8548   -3.3378   -1.4350 C.2     1  UNL1        0.2508
     72 C           3.2659   -2.7305   -2.9997 C.3     1  UNL1        0.1868
     73 F           4.5098   -3.2290   -3.2689 F       1  UNL1       -0.2320
     74 C           2.0694   -2.6557   -4.1632 C.3     1  UNL1       -0.0068
     75 C           2.8568   -1.3746   -3.8926 C.3     1  UNL1       -0.0068
     76 O           3.6636   -3.9648   -0.7491 O.2     1  UNL1       -0.2723
     77 O          -0.6829   -4.9356   -0.2664 O.2     1  UNL1       -0.2735
     78 O           0.9092   -3.0673    3.3786 O.2     1  UNL1       -0.2738
     79 C          -1.2217    0.2098    3.7459 C.3     1  UNL1        0.0118
     80 C           0.1328    0.1117    3.3335 C.3     1  UNL1        0.0120
     81 H           1.3634   -0.6796   -2.6631 H       1  UNL1        0.0660
     82 H           1.4244   -2.6139   -2.4646 H       1  UNL1        0.0660
     83 H           2.3602   -1.2861   -1.4377 H       1  UNL1        0.0660
     84 H          -2.2393   -3.4126   -1.6824 H       1  UNL1        0.0660
     85 H          -7.1686   -5.9757   -1.2087 H       1  UNL1        0.0837
     86 H          -3.3272   -7.5863   -0.5163 H       1  UNL1        0.0830
     87 H          -2.5018   -5.3695   -0.6062 H       1  UNL1        0.0639
     88 H          -5.0643   -1.8270    1.4546 H       1  UNL1        0.0816
     89 H          -7.7436   -1.2194    0.6371 H       1  UNL1        0.0457
     90 H          -7.8437   -2.1175    2.1994 H       1  UNL1        0.0457
     91 H          -6.6178   -0.8517    1.9657 H       1  UNL1        0.0457
     92 H          -2.6693   -3.4534    3.3323 H       1  UNL1        0.0660
     93 H           1.6252   -2.4774    4.6370 H       1  UNL1        0.0660
     94 H           0.9998   -1.3484    4.9012 H       1  UNL1        0.0660
     95 H           0.5672   -1.2872    5.8531 H       1  UNL1        0.0660
     96 H           1.4798   -2.6051    1.9860 H       1  UNL1        0.0478
     97 H           2.0987   -2.1644   -0.0182 H       1  UNL1        0.0478
     98 H           0.9186    1.5350    0.5059 H       1  UNL1        0.0439
     99 H           0.4575    1.2440   -0.7921 H       1  UNL1        0.0439
    100 H          -1.7153   -0.0045   -0.1377 H       1  UNL1        0.0439
    101 H          -1.8900    1.8392    0.0185 H       1  UNL1        0.0439
    102 H          -2.8209    2.7123    2.2720 H       1  UNL1        0.0449
    103 H          -2.4654    1.9253    4.0518 H       1  UNL1        0.0449
    104 H          -0.7623    3.7534    3.9805 H       1  UNL1        0.0572
    105 H          -0.9115    2.2887    3.3724 H       1  UNL1        0.0572
    106 H          -0.7598    1.9847    1.5211 H       1  UNL1        0.0583
    107 H           0.2060    2.8535    0.5676 H       1  UNL1        0.0583
    108 H           1.3344    0.6408    2.6401 H       1  UNL1        0.0583
    109 H           1.6369    1.8629    2.1638 H       1  UNL1        0.0583
    110 H           0.4616    2.8123    4.3487 H       1  UNL1        0.0583
    111 H          -0.0103    1.7690    5.7754 H       1  UNL1        0.0583
    112 H           2.3640    3.6788    4.5144 H       1  UNL1        0.0583
    113 H           2.1718    2.7416    5.2771 H       1  UNL1        0.0583
    114 H           2.7457    0.7569    1.9643 H       1  UNL1        0.0583
    115 H           3.8049    1.1438    1.3864 H       1  UNL1        0.0583
    116 H           3.7100   -1.1073    3.0405 H       1  UNL1        0.0583
    117 H           4.5728    0.3391    4.3063 H       1  UNL1        0.0583
    118 H           2.8107    1.1931    5.1396 H       1  UNL1        0.0594
    119 H           2.3290    0.7009    6.4415 H       1  UNL1        0.0594
    120 H           4.2186    2.6361    5.7986 H       1  UNL1        0.0720
    121 H           5.2276    0.9921    6.0573 H       1  UNL1        0.0720
    122 H           7.4537    0.8425    2.5600 H       1  UNL1        0.0660
    123 H           6.0287    0.4341   -2.1683 H       1  UNL1        0.0293
    124 H           5.5857   -1.2892   -2.2523 H       1  UNL1        0.0293
    125 H           5.0616   -0.2967   -0.9027 H       1  UNL1        0.0293
    126 H          10.2413   -1.6705   -1.0657 H       1  UNL1        0.0907
    127 H           5.3875   -2.7399    0.5106 H       1  UNL1        0.0624
    128 H           4.0816   -3.0172    2.0639 H       1  UNL1        0.0622
    129 H           2.9091   -1.8795    5.1097 H       1  UNL1        0.0513
    130 H           2.4996   -0.2242    4.5190 H       1  UNL1        0.0513
    131 H           2.2244    0.5106    3.3948 H       1  UNL1        0.1491
    132 H          -1.8141   -0.6821    1.6685 H       1  UNL1        0.0597
    133 H          -3.1490    0.1117    3.6237 H       1  UNL1        0.0313
    134 H          -2.9450   -1.4841    4.0480 H       1  UNL1        0.0313
    135 H          -4.5101   -0.8935    2.6361 H       1  UNL1        0.0610
    136 H          -3.2266   -0.1960    0.2316 H       1  UNL1        0.2098
    137 H          -3.5411   -2.6465    2.1394 H       1  UNL1        0.0490
    138 H          -3.3284   -1.8610    0.3068 H       1  UNL1        0.0490
    139 H           2.2690   -3.8478    0.9687 H       1  UNL1        0.0600
    140 H           3.7173   -1.2511    1.0222 H       1  UNL1        0.0236
    141 H           3.1865   -0.6071    1.9962 H       1  UNL1        0.0236
    142 H           2.7544   -2.3250    2.5687 H       1  UNL1        0.0236
    143 H           1.4151   -0.0805   -0.8032 H       1  UNL1        0.0236
    144 H           2.3842    1.1188    0.1870 H       1  UNL1        0.0236
    145 H           3.3090    0.0573   -0.5211 H       1  UNL1        0.0236
    146 H          -0.5549   -0.8149    0.4335 H       1  UNL1        0.0236
    147 H          -0.2740   -1.7732    2.0587 H       1  UNL1        0.0236
    148 H          -0.5404   -0.1438    1.9238 H       1  UNL1        0.0236
    149 H           0.8860   -2.2228   -0.8527 H       1  UNL1        0.1496
    150 H           1.9978   -3.1778   -5.0801 H       1  UNL1        0.0302
    151 H           0.9581   -2.7835   -3.8828 H       1  UNL1        0.0302
    152 H           2.4564   -0.3388   -3.6282 H       1  UNL1        0.0302
    153 H           3.5180   -0.8283   -4.5323 H       1  UNL1        0.0302
    154 H          -1.1621   -0.8512    3.9677 H       1  UNL1        0.0439
    155 H          -1.5429   -0.1011    4.8115 H       1  UNL1        0.0439
    156 H           0.6636    0.0422    4.5511 H       1  UNL1        0.0439
    157 H           1.0461    0.6569    3.9734 H       1  UNL1        0.0439
@<TRIPOS>BOND
     1     1     2    1
     2     2     3    1
     3     3     4   ar
     4     4     5   ar
     5     5     6    1
     6     6     7   ar
     7     7     8   ar
     8     8     9   ar
     9     9    10   ar
    10    10    11   ar
    11    11    12   ar
    12     7    12   ar
    13     6    13   ar
    14    13    14   ar
    15    14    15    1
    16    14    16   ar
    17     8    16   ar
    18    16    17    2
    19     5    18   ar
    20    18    19   ar
    21    19    20    1
    22    20    21    1
    23    19    22   ar
    24     3    22   ar
    25    22    23    1
    26    23    24    1
    27    24    25    1
    28    25    26    1
    29    26    27    1
    30    27    28    1
    31    28    29    1
    32    29    30    1
    33    30    31    1
    34    31    32    1
    35    32    33    1
    36    33    34    1
    37    34    35    1
    38    35    36    1
    39    36    37    1
    40    37    38    1
    41    38    39    1
    42    39    40    1
    43    40    41    1
    44    41    42    1
    45    42    43    1
    46    43    44   ar
    47    44    45   ar
    48    45    46    1
    49    46    47   ar
    50    47    48    1
    51    47    49   ar
    52    49    50   ar
    53    50    51   ar
    54    46    51   ar
    55    45    52   ar
    56    52    53   ar
    57    53    54   ar
    58    43    54   ar
    59    54    55    1
    60    55    56    1
    61    56    57   am
    62    58    59    1
    63    59    60    1
    64    60    61    1
    65    60    62    1
    66    62    63    1
    67    58    63    1
    68    63    64   am
    69    66    67    1
    70    66    68    1
    71    66    69    1
    72    65    70    1
    73    70    71   am
    74    71    72    1
    75    72    73    1
    76    72    74    1
    77    74    75    1
    78    72    75    1
    79    71    76    2
    80    64    77    2
    81    57    78    2
    82    27    79    1
    83    79    80    1
    84    24    80    1
    85     1    81    1
    86     1    82    1
    87     1    83    1
    88     4    84    1
    89     9    85    1
    90    11    86    1
    91    12    87    1
    92    13    88    1
    93    15    89    1
    94    15    90    1
    95    15    91    1
    96    18    92    1
    97    21    93    1
    98    21    94    1
    99    21    95    1
   100    23    96    1
   101    23    97    1
   102    25    98    1
   103    25    99    1
   104    26   100    1
   105    26   101    1
   106    28   102    1
   107    28   103    1
   108    29   104    1
   109    29   105    1
   110    31   106    1
   111    31   107    1
   112    32   108    1
   113    32   109    1
   114    34   110    1
   115    34   111    1
   116    35   112    1
   117    35   113    1
   118    37   114    1
   119    37   115    1
   120    38   116    1
   121    38   117    1
   122    40   118    1
   123    40   119    1
   124    41   120    1
   125    41   121    1
   126    44   122    1
   127    48   123    1
   128    48   124    1
   129    48   125    1
   130    50   126    1
   131    52   127    1
   132    53   128    1
   133    55   129    1
   134    55   130    1
   135    56   131    1
   136    59   133    1
   137    59   134    1
   138    60   135    1
   139    61   136    1
   140    62   137    1
   141    62   138    1
   142    65   139    1
   143    67   140    1
   144    67   141    1
   145    67   142    1
   146    68   143    1
   147    68   144    1
   148    68   145    1
   149    69   146    1
   150    69   147    1
   151    69   148    1
   152    70   149    1
   153    74   150    1
   154    74   151    1
   155    75   152    1
   156    75   153    1
   157    79   154    1
   158    79   155    1
   159    80   156    1
   160    80   157    1
   161    65    66    1
   162    65    64    1
   163    58   132    1
   164    58    57    1
