@<TRIPOS>MOLECULE
*****
 141 147 0 0 0
SMALL
GASTEIGER

@<TRIPOS>ATOM
      1 C           1.1310   -0.3811    0.0037 C.3     1  UNL1       -0.0579
      2 C           0.6369   -0.6359    1.4087 C.3     1  UNL1       -0.0108
      3 C           1.1468    0.5292    2.0592 C.3     1  UNL1       -0.0579
      4 C          -0.8836   -0.5882    1.5035 C.3     1  UNL1       -0.0579
      5 C           1.2693   -1.6758    2.2385 C.3     1  UNL1        0.1045
      6 N           0.8395   -2.8930    1.7034 N.am    1  UNL1       -0.3016
      7 C           1.8330   -3.6536    1.2099 C.2     1  UNL1        0.2394
      8 C           1.6089   -4.7653    0.3513 C.3     1  UNL1        0.1237
      9 O           1.9740   -4.1057   -0.8580 O.3     1  UNL1       -0.3683
     10 C           1.0978   -3.2388   -1.6751 C.3     1  UNL1        0.0716
     11 C          -0.5113   -3.0687   -1.7493 C.3     1  UNL1        0.0710
     12 O          -1.3940   -3.1187   -0.6138 O.3     1  UNL1       -0.3775
     13 C          -1.2097   -4.3457    0.0078 C.3     1  UNL1        0.0478
     14 C          -1.2938   -5.6148   -0.8141 C.3     1  UNL1       -0.0294
     15 C          -0.5913   -5.8132   -2.2762 C.3     1  UNL1       -0.0498
     16 C           0.9310   -6.0647   -2.3773 C.3     1  UNL1       -0.0401
     17 C           1.6481   -7.0198   -1.5010 C.3     1  UNL1       -0.0010
     18 N           1.0821   -8.1933   -1.9994 N.3     1  UNL1       -0.2999
     19 C           1.8547   -9.2265   -1.3691 C.3     1  UNL1        0.0117
     20 C           1.5461   -9.3502    0.1597 C.3     1  UNL1        0.0120
     21 N           0.0294   -9.6186    0.4320 N.3     1  UNL1       -0.2955
     22 C          -0.8095  -10.7376   -0.2495 C.3     1  UNL1        0.0311
     23 C          -0.9163  -10.9847   -1.7571 C.ar    1  UNL1        0.0498
     24 C          -2.0371  -10.5972   -2.5480 C.ar    1  UNL1        0.1285
     25 O          -3.2248  -10.0099   -2.1370 O.3     1  UNL1       -0.4947
     26 C          -3.4840   -9.7908   -0.7562 C.3     1  UNL1        0.0788
     27 C          -1.8861  -10.6019   -3.9551 C.ar    1  UNL1       -0.0116
     28 C          -0.6257  -10.7288   -4.5686 C.ar    1  UNL1       -0.0090
     29 C          -0.4642  -10.4780   -6.0156 C.ar    1  UNL1        0.0065
     30 C           0.0989  -11.4503   -6.7469 C.ar    1  UNL1        0.0159
     31 N           0.2877  -11.3661   -8.1168 N.ar    1  UNL1       -0.3171
     32 C           0.8788  -12.4799   -8.8221 C.3     1  UNL1        0.0147
     33 C          -0.0880  -10.2551   -8.8395 C.ar    1  UNL1        0.2603
     34 C          -0.6717   -9.1448   -8.0990 C.ar    1  UNL1        0.0653
     35 C          -0.8567   -9.2503   -6.7211 C.ar    1  UNL1       -0.0007
     36 C          -1.3296   -8.1459   -6.0237 C.ar    1  UNL1       -0.0351
     37 C          -1.3275   -6.9390   -6.6808 C.ar    1  UNL1        0.0282
     38 N          -1.2614   -6.8264   -8.0231 N.ar    1  UNL1       -0.2625
     39 C          -1.0073   -7.9593   -8.7148 C.ar    1  UNL1        0.0405
     40 O           0.0755  -10.1487  -10.0983 O.2     1  UNL1       -0.2670
     41 C           0.4594  -11.1043   -3.7900 C.ar    1  UNL1       -0.0116
     42 C           0.2542  -11.4469   -2.4301 C.ar    1  UNL1        0.1285
     43 O           1.4130  -11.9110   -1.8222 O.3     1  UNL1       -0.4947
     44 C           1.6521  -11.9274   -0.4245 C.3     1  UNL1        0.0788
     45 C          -0.5072   -8.3960   -0.0062 C.3     1  UNL1        0.0120
     46 C          -0.2954   -8.3160   -1.5077 C.3     1  UNL1        0.0117
     47 O           3.0676   -3.4542    1.3949 O.2     1  UNL1       -0.2733
     48 C           2.8210   -1.3693    2.2665 C.2     1  UNL1        0.2371
     49 N           3.3414   -1.3092    3.5161 N.am    1  UNL1       -0.2858
     50 C           4.5014   -0.4550    3.7620 C.3     1  UNL1        0.1047
     51 C           4.0977    1.0530    3.5453 C.2     1  UNL1        0.2339
     52 N           2.7643    1.3309    3.7935 N.am    1  UNL1       -0.3097
     53 C           2.0069    2.6472    3.5042 C.3     1  UNL1        0.0369
     54 C           0.9165    2.9920    2.2528 C.ar    1  UNL1       -0.0303
     55 C          -0.5152    2.5655    2.2993 C.ar    1  UNL1       -0.0565
     56 C          -1.2663    2.3058    1.0749 C.ar    1  UNL1       -0.0532
     57 C          -0.6471    2.4304   -0.2111 C.ar    1  UNL1       -0.0095
     58 C          -1.3579    1.9524   -1.4388 C.ar    1  UNL1        0.0417
     59 C          -1.0505    1.1835   -2.5783 C.ar    1  UNL1        0.0531
     60 C           0.1738    0.4177   -2.9557 C.3     1  UNL1       -0.0212
     61 N          -2.0399    1.1908   -3.5666 N.ar    1  UNL1       -0.2520
     62 C          -3.0600    1.9106   -3.1731 C.ar    1  UNL1        0.0655
     63 S          -2.9779    2.5446   -1.6034 S.2     1  UNL1       -0.0752
     64 C           0.7011    2.8883   -0.2620 C.ar    1  UNL1       -0.0532
     65 C           1.4718    3.1832    0.9280 C.ar    1  UNL1       -0.0565
     66 O           4.9229    1.9463    3.3158 O.2     1  UNL1       -0.2738
     67 C           4.7977   -0.7231    5.2324 C.3     1  UNL1        0.0018
     68 C           3.5259   -1.3838    5.7901 C.3     1  UNL1        0.0731
     69 O           3.7884   -2.1773    6.9265 O.3     1  UNL1       -0.3902
     70 C           2.9927   -2.1747    4.6150 C.3     1  UNL1        0.0416
     71 O           3.4896   -1.0238    1.2928 O.2     1  UNL1       -0.2735
     72 H           0.7447    0.5432   -0.3857 H       1  UNL1        0.0236
     73 H           0.6872   -1.0960   -0.6290 H       1  UNL1        0.0236
     74 H           2.1962   -0.1767   -0.1239 H       1  UNL1        0.0236
     75 H           0.7243    1.1896    1.3850 H       1  UNL1        0.0236
     76 H           0.7465    0.6524    3.0721 H       1  UNL1        0.0236
     77 H           2.1916    0.7907    1.8624 H       1  UNL1        0.0236
     78 H          -1.4458   -1.3923    1.0595 H       1  UNL1        0.0236
     79 H          -1.2984   -0.2926    2.4835 H       1  UNL1        0.0236
     80 H          -1.1261    0.1519    0.7781 H       1  UNL1        0.0236
     81 H           0.8073   -1.5597    3.2308 H       1  UNL1        0.0600
     82 H          -0.1219   -2.8457    1.3533 H       1  UNL1        0.1495
     83 H           2.2247   -5.5761    0.7596 H       1  UNL1        0.0656
     84 H           0.7168   -5.3519    0.3668 H       1  UNL1        0.0656
     85 H           1.5209   -2.2895   -1.4612 H       1  UNL1        0.0583
     86 H           1.4217   -3.3987   -2.7288 H       1  UNL1        0.0583
     87 H          -0.7625   -2.1852   -2.3087 H       1  UNL1        0.0583
     88 H          -0.9827   -3.7103   -2.4469 H       1  UNL1        0.0583
     89 H          -0.2095   -4.1104    0.0911 H       1  UNL1        0.0560
     90 H          -1.3396   -4.4999    1.1074 H       1  UNL1        0.0560
     91 H          -0.8331   -6.2740   -0.0986 H       1  UNL1        0.0287
     92 H          -2.3257   -5.9698   -0.8106 H       1  UNL1        0.0287
     93 H          -1.0583   -6.5973   -2.8791 H       1  UNL1        0.0266
     94 H          -0.9338   -5.1492   -3.0382 H       1  UNL1        0.0266
     95 H           1.3264   -6.0441   -3.3896 H       1  UNL1        0.0278
     96 H           1.3814   -5.2343   -2.0273 H       1  UNL1        0.0278
     97 H           2.7485   -6.9995   -1.5255 H       1  UNL1        0.0426
     98 H           1.4286   -6.9382   -0.4495 H       1  UNL1        0.0426
     99 H           1.2934   -9.9021   -1.8996 H       1  UNL1        0.0439
    100 H           2.8299   -9.4974   -1.8018 H       1  UNL1        0.0439
    101 H           1.9635   -8.4530    0.6499 H       1  UNL1        0.0439
    102 H           2.1224  -10.0085    0.8138 H       1  UNL1        0.0439
    103 H          -0.6546  -11.7369    0.1425 H       1  UNL1        0.0478
    104 H          -1.7542  -10.6155    0.2320 H       1  UNL1        0.0478
    105 H          -3.4608  -10.7285   -0.1985 H       1  UNL1        0.0660
    106 H          -2.8172   -9.0400   -0.3674 H       1  UNL1        0.0660
    107 H          -4.4556   -9.3504   -0.5374 H       1  UNL1        0.0660
    108 H          -2.7484  -10.4297   -4.5956 H       1  UNL1        0.0660
    109 H           0.4294  -12.3743   -6.2780 H       1  UNL1        0.0816
    110 H           0.1663  -12.8278   -9.5763 H       1  UNL1        0.0457
    111 H           1.7898  -12.1364   -9.3218 H       1  UNL1        0.0457
    112 H           1.1196  -13.2978   -8.1396 H       1  UNL1        0.0457
    113 H          -1.6109   -8.1929   -4.9796 H       1  UNL1        0.0639
    114 H          -1.3132   -6.0151   -6.1125 H       1  UNL1        0.0830
    115 H          -1.0418   -7.8842   -9.7973 H       1  UNL1        0.0837
    116 H           1.4754  -11.0361   -4.2075 H       1  UNL1        0.0660
    117 H           1.1007  -11.2905    0.2101 H       1  UNL1        0.0660
    118 H           1.2033  -12.7563    0.0858 H       1  UNL1        0.0660
    119 H           2.6691  -11.5755   -0.1965 H       1  UNL1        0.0660
    120 H           0.0464   -7.6601    0.5776 H       1  UNL1        0.0439
    121 H          -1.5152   -8.1221    0.2961 H       1  UNL1        0.0439
    122 H          -1.0133   -7.5771   -1.6312 H       1  UNL1        0.0439
    123 H          -0.8390   -8.8501   -2.2579 H       1  UNL1        0.0439
    124 H           5.3288   -0.7236    3.0864 H       1  UNL1        0.0597
    125 H           2.2799    0.4467    3.9368 H       1  UNL1        0.1491
    126 H           1.4064    2.7403    4.4059 H       1  UNL1        0.0512
    127 H           2.8136    3.3564    3.3586 H       1  UNL1        0.0512
    128 H          -0.8653    1.9685    3.1691 H       1  UNL1        0.0621
    129 H          -2.1769    1.6573    1.1013 H       1  UNL1        0.0624
    130 H          -0.0574   -0.6224   -3.2007 H       1  UNL1        0.0293
    131 H           0.6779    0.8624   -3.8128 H       1  UNL1        0.0293
    132 H           0.9285    0.3994   -2.1918 H       1  UNL1        0.0293
    133 H          -3.9240    2.1048   -3.7899 H       1  UNL1        0.0907
    134 H           1.2282    2.8065   -1.2210 H       1  UNL1        0.0624
    135 H           2.5613    3.2424    0.8024 H       1  UNL1        0.0621
    136 H           5.0321    0.1940    5.7770 H       1  UNL1        0.0313
    137 H           5.6527   -1.3990    5.3327 H       1  UNL1        0.0313
    138 H           2.7837   -0.6238    6.0611 H       1  UNL1        0.0610
    139 H           4.5097   -2.7949    6.7158 H       1  UNL1        0.2098
    140 H           3.4789   -3.1497    4.4834 H       1  UNL1        0.0490
    141 H           1.9188   -2.3696    4.6751 H       1  UNL1        0.0490
@<TRIPOS>BOND
     1     1     2    1
     2     2     3    1
     3     2     4    1
     4     2     5    1
     5     5     6    1
     6     6     7   am
     7     7     8    1
     8     8     9    1
     9     9    10    1
    10    10    11    1
    11    11    12    1
    12    12    13    1
    13    13    14    1
    14    14    15    1
    15    15    16    1
    16    16    17    1
    17    17    18    1
    18    18    19    1
    19    19    20    1
    20    20    21    1
    21    21    22    1
    22    22    23    1
    23    23    24   ar
    24    24    25    1
    25    25    26    1
    26    24    27   ar
    27    27    28   ar
    28    28    29    1
    29    29    30   ar
    30    30    31   ar
    31    31    32    1
    32    31    33   ar
    33    33    34   ar
    34    34    35   ar
    35    29    35   ar
    36    35    36   ar
    37    36    37   ar
    38    37    38   ar
    39    38    39   ar
    40    34    39   ar
    41    33    40    2
    42    28    41   ar
    43    41    42   ar
    44    23    42   ar
    45    42    43    1
    46    43    44    1
    47    21    45    1
    48    45    46    1
    49    18    46    1
    50     7    47    2
    51     5    48    1
    52    48    49   am
    53    49    50    1
    54    51    52   am
    55    52    53    1
    56    53    54    1
    57    54    55   ar
    58    55    56   ar
    59    56    57   ar
    60    57    58    1
    61    58    59   ar
    62    59    60    1
    63    59    61   ar
    64    61    62   ar
    65    62    63   ar
    66    58    63   ar
    67    57    64   ar
    68    64    65   ar
    69    54    65   ar
    70    51    66    2
    71    50    67    1
    72    67    68    1
    73    68    69    1
    74    68    70    1
    75    49    70    1
    76    48    71    2
    77     1    72    1
    78     1    73    1
    79     1    74    1
    80     3    75    1
    81     3    76    1
    82     3    77    1
    83     4    78    1
    84     4    79    1
    85     4    80    1
    86     5    81    1
    87     6    82    1
    88     8    83    1
    89     8    84    1
    90    10    85    1
    91    10    86    1
    92    11    87    1
    93    11    88    1
    94    13    89    1
    95    13    90    1
    96    14    91    1
    97    14    92    1
    98    15    93    1
    99    15    94    1
   100    16    95    1
   101    16    96    1
   102    17    97    1
   103    17    98    1
   104    19    99    1
   105    19   100    1
   106    20   101    1
   107    20   102    1
   108    22   103    1
   109    22   104    1
   110    26   105    1
   111    26   106    1
   112    26   107    1
   113    27   108    1
   114    30   109    1
   115    32   110    1
   116    32   111    1
   117    32   112    1
   118    36   113    1
   119    37   114    1
   120    39   115    1
   121    41   116    1
   122    44   117    1
   123    44   118    1
   124    44   119    1
   125    45   120    1
   126    45   121    1
   127    46   122    1
   128    46   123    1
   129    52   125    1
   130    53   126    1
   131    53   127    1
   132    55   128    1
   133    56   129    1
   134    60   130    1
   135    60   131    1
   136    60   132    1
   137    62   133    1
   138    64   134    1
   139    65   135    1
   140    67   136    1
   141    67   137    1
   142    68   138    1
   143    69   139    1
   144    70   140    1
   145    70   141    1
   146    50   124    1
   147    50    51    1
