@<TRIPOS>MOLECULE
*****
 97 100 0 0 0
SMALL
GASTEIGER

@<TRIPOS>ATOM
      1 C          -2.5795   -7.5169    5.7289 C.3     1  UNL1       -0.0212
      2 C          -1.4454   -8.3238    6.2578 C.ar    1  UNL1        0.0531
      3 C          -0.1873   -8.6484    5.7433 C.ar    1  UNL1        0.0418
      4 S           0.6588   -9.6712    6.8367 S.2     1  UNL1       -0.0752
      5 C          -0.6421   -9.5449    7.9133 C.ar    1  UNL1        0.0655
      6 N          -1.6717   -8.8364    7.5260 N.ar    1  UNL1       -0.2520
      7 C           0.5784   -8.3234    4.5551 C.ar    1  UNL1       -0.0061
      8 C           0.6676   -9.2342    3.5367 C.ar    1  UNL1       -0.0529
      9 C           1.3424   -8.8508    2.3924 C.ar    1  UNL1       -0.0530
     10 C           1.9562   -7.5754    2.1472 C.ar    1  UNL1        0.0113
     11 C           2.3224   -7.1470    0.7064 C.3     1  UNL1        0.0403
     12 N           3.5232   -7.6068    0.1210 N.am    1  UNL1       -0.3095
     13 C           3.4814   -8.0759   -1.1838 C.2     1  UNL1        0.2339
     14 C           4.5204   -9.1179   -1.5538 C.3     1  UNL1        0.1047
     15 C           5.8592   -8.5354   -1.9263 C.3     1  UNL1        0.0018
     16 C           6.2920   -9.5116   -3.0101 C.3     1  UNL1        0.0731
     17 O           6.8328  -10.6976   -2.4080 O.3     1  UNL1       -0.3902
     18 C           4.9884   -9.8347   -3.7601 C.3     1  UNL1        0.0416
     19 N           3.9859   -9.8539   -2.7105 N.am    1  UNL1       -0.2858
     20 C           2.6941  -10.3885   -2.9082 C.2     1  UNL1        0.2371
     21 C           1.6440  -10.5089   -1.7075 C.3     1  UNL1        0.1045
     22 C           2.1974  -11.3756   -0.5294 C.3     1  UNL1       -0.0108
     23 C           3.2064  -12.3860   -1.0279 C.3     1  UNL1       -0.0579
     24 C           2.8883  -10.5421    0.5225 C.3     1  UNL1       -0.0579
     25 C           1.0438  -12.0486    0.2239 C.3     1  UNL1       -0.0579
     26 N           0.3311  -11.0170   -2.1890 N.am    1  UNL1       -0.3009
     27 C          -0.8016  -10.1864   -2.1424 C.2     1  UNL1        0.2508
     28 C          -2.1398  -10.7870   -2.4770 C.3     1  UNL1        0.1868
     29 F          -3.1679  -10.2681   -1.6789 F       1  UNL1       -0.2320
     30 C          -2.4825  -11.0356   -3.9289 C.3     1  UNL1       -0.0068
     31 C          -2.4379  -12.1797   -2.9547 C.3     1  UNL1       -0.0068
     32 O          -0.7598   -9.0483   -1.8162 O.2     1  UNL1       -0.2723
     33 O           2.3940  -10.8757   -4.0077 O.2     1  UNL1       -0.2735
     34 O           2.5587   -7.8305   -1.9632 O.2     1  UNL1       -0.2738
     35 C           1.7209   -6.6124    3.1710 C.ar    1  UNL1        0.1259
     36 O           1.5393   -5.2586    2.7981 O.3     1  UNL1       -0.4893
     37 C           0.9356   -4.2803    3.7314 C.3     1  UNL1        0.1128
     38 C          -0.5506   -4.3397    4.3587 C.3     1  UNL1        0.0819
     39 O          -1.2703   -5.5636    4.3784 O.3     1  UNL1       -0.3714
     40 C          -1.2546   -6.3094    3.1280 C.3     1  UNL1        0.0987
     41 C          -2.0550   -6.1191    1.8042 C.3     1  UNL1        0.1822
     42 O          -1.9247   -4.8892    1.0786 O.3     1  UNL1       -0.3493
     43 C          -1.8541   -3.7791    1.9063 C.3     1  UNL1        0.0479
     44 C          -3.1633   -3.8470    2.6812 C.3     1  UNL1       -0.0415
     45 O          -1.7522   -7.1196    0.8411 O.3     1  UNL1       -0.3493
     46 C          -0.4119   -7.0074    0.4213 C.3     1  UNL1        0.0479
     47 C           0.1536   -5.6482   -0.1493 C.3     1  UNL1       -0.0415
     48 C           1.1499   -7.0480    4.3888 C.ar    1  UNL1       -0.0113
     49 H          -3.5209   -8.0667    5.7119 H       1  UNL1        0.0293
     50 H          -2.6967   -6.5798    6.2867 H       1  UNL1        0.0293
     51 H          -2.4955   -7.2772    4.6935 H       1  UNL1        0.0293
     52 H          -0.6062  -10.0351    8.8692 H       1  UNL1        0.0907
     53 H           0.1403  -10.1897    3.5399 H       1  UNL1        0.0624
     54 H           1.0942   -9.5733    1.6338 H       1  UNL1        0.0622
     55 H           1.6040   -7.4283   -0.0635 H       1  UNL1        0.0513
     56 H           2.4123   -6.0709    0.7247 H       1  UNL1        0.0513
     57 H           4.3354   -7.4127    0.6665 H       1  UNL1        0.1491
     58 H           4.8606   -9.8335   -0.8180 H       1  UNL1        0.0597
     59 H           6.5298   -8.5436   -1.0527 H       1  UNL1        0.0313
     60 H           5.7376   -7.5074   -2.2667 H       1  UNL1        0.0313
     61 H           7.0693   -9.0765   -3.6355 H       1  UNL1        0.0610
     62 H           6.1061  -11.2125   -2.0117 H       1  UNL1        0.2098
     63 H           4.7227   -9.0257   -4.4453 H       1  UNL1        0.0490
     64 H           5.0132  -10.7958   -4.2770 H       1  UNL1        0.0490
     65 H           1.3801   -9.5417   -1.2912 H       1  UNL1        0.0600
     66 H           4.0672  -11.8982   -1.4874 H       1  UNL1        0.0236
     67 H           3.6171  -12.9615   -0.2004 H       1  UNL1        0.0236
     68 H           2.7466  -13.0298   -1.7766 H       1  UNL1        0.0236
     69 H           2.3159   -9.6507    0.5635 H       1  UNL1        0.0236
     70 H           3.1249  -11.0256    1.4687 H       1  UNL1        0.0236
     71 H           3.8095  -10.0769    0.3299 H       1  UNL1        0.0236
     72 H           0.3245  -11.3046    0.5928 H       1  UNL1        0.0236
     73 H           0.5080  -12.7441   -0.4219 H       1  UNL1        0.0236
     74 H           1.4238  -12.6023    1.0861 H       1  UNL1        0.0236
     75 H           0.2778  -11.9468   -2.5612 H       1  UNL1        0.1496
     76 H          -3.4434  -10.7145   -4.3149 H       1  UNL1        0.0302
     77 H          -1.6912  -10.9354   -4.6648 H       1  UNL1        0.0302
     78 H          -1.6588  -12.9218   -3.0353 H       1  UNL1        0.0302
     79 H          -3.3848  -12.6085   -2.6358 H       1  UNL1        0.0302
     80 H           1.6366   -4.2344    4.5559 H       1  UNL1        0.0720
     81 H           1.0043   -3.3053    3.2145 H       1  UNL1        0.0720
     82 H          -0.6559   -3.6172    5.1902 H       1  UNL1        0.0594
     83 H          -1.3162   -3.7800    3.8869 H       1  UNL1        0.0594
     84 H          -0.2962   -6.1097    2.7855 H       1  UNL1        0.0610
     85 H          -1.2926   -7.3790    3.3503 H       1  UNL1        0.0610
     86 H          -3.0857   -6.3150    2.0539 H       1  UNL1        0.0933
     87 H          -0.8585   -3.9090    2.3027 H       1  UNL1        0.0558
     88 H          -1.6539   -2.7794    1.5089 H       1  UNL1        0.0558
     89 H          -3.3465   -4.8046    3.1903 H       1  UNL1        0.0252
     90 H          -3.2718   -3.1098    3.4660 H       1  UNL1        0.0252
     91 H          -3.9527   -3.7869    1.9314 H       1  UNL1        0.0252
     92 H           0.0643   -7.1475    1.3536 H       1  UNL1        0.0558
     93 H          -0.1361   -7.9352   -0.0771 H       1  UNL1        0.0558
     94 H           0.2405   -4.9081    0.6593 H       1  UNL1        0.0252
     95 H           1.1734   -5.5485   -0.5535 H       1  UNL1        0.0252
     96 H          -0.4523   -5.3120   -0.9751 H       1  UNL1        0.0252
     97 H           0.7994   -6.3216    5.1094 H       1  UNL1        0.0660
@<TRIPOS>BOND
     1     1     2    1
     2     2     3   ar
     3     3     4   ar
     4     4     5   ar
     5     5     6   ar
     6     2     6   ar
     7     3     7    1
     8     7     8   ar
     9     8     9   ar
    10     9    10   ar
    11    10    11    1
    12    11    12    1
    13    12    13   am
    14    14    15    1
    15    15    16    1
    16    16    17    1
    17    16    18    1
    18    18    19    1
    19    14    19    1
    20    19    20   am
    21    22    23    1
    22    22    24    1
    23    22    25    1
    24    21    26    1
    25    26    27   am
    26    27    28    1
    27    28    29    1
    28    28    30    1
    29    30    31    1
    30    28    31    1
    31    27    32    2
    32    20    33    2
    33    13    34    2
    34    10    35   ar
    35    35    36    1
    36    36    37    1
    37    37    38    1
    38    38    39    1
    39    39    40    1
    40    40    41    1
    41    41    42    1
    42    42    43    1
    43    43    44    1
    44    41    45    1
    45    45    46    1
    46    46    47    1
    47    35    48   ar
    48     7    48   ar
    49     1    49    1
    50     1    50    1
    51     1    51    1
    52     5    52    1
    53     8    53    1
    54     9    54    1
    55    11    55    1
    56    11    56    1
    57    12    57    1
    58    15    59    1
    59    15    60    1
    60    16    61    1
    61    17    62    1
    62    18    63    1
    63    18    64    1
    64    21    65    1
    65    23    66    1
    66    23    67    1
    67    23    68    1
    68    24    69    1
    69    24    70    1
    70    24    71    1
    71    25    72    1
    72    25    73    1
    73    25    74    1
    74    26    75    1
    75    30    76    1
    76    30    77    1
    77    31    78    1
    78    31    79    1
    79    37    80    1
    80    37    81    1
    81    38    82    1
    82    38    83    1
    83    40    84    1
    84    40    85    1
    85    41    86    1
    86    43    87    1
    87    43    88    1
    88    44    89    1
    89    44    90    1
    90    44    91    1
    91    46    92    1
    92    46    93    1
    93    47    94    1
    94    47    95    1
    95    47    96    1
    96    48    97    1
    97    21    22    1
    98    21    20    1
    99    14    58    1
   100    14    13    1
