@<TRIPOS>MOLECULE
*****
 153 159 0 0 0
SMALL
GASTEIGER

@<TRIPOS>ATOM
      1 C           1.3720   -2.3324   -1.1004 C.3     1  UNL1       -0.0579
      2 C           0.7601   -2.9673    0.1221 C.3     1  UNL1       -0.0108
      3 C          -0.6657   -3.0158   -0.1885 C.3     1  UNL1       -0.0579
      4 C           1.0193   -4.4096    0.3309 C.3     1  UNL1       -0.0579
      5 C           1.2237   -2.1629    1.3433 C.3     1  UNL1        0.1045
      6 N           0.4457   -0.9811    1.5634 N.am    1  UNL1       -0.3016
      7 C          -0.7534   -1.4650    2.2280 C.2     1  UNL1        0.2394
      8 C          -2.2037   -0.9456    2.2800 C.3     1  UNL1        0.1237
      9 O          -3.2418   -1.3276    1.4012 O.3     1  UNL1       -0.3683
     10 C          -2.7390   -1.3819    0.0407 C.3     1  UNL1        0.0716
     11 C          -1.6480   -0.3571   -0.7198 C.3     1  UNL1        0.0711
     12 O          -0.6682    0.5336   -0.1363 O.3     1  UNL1       -0.3752
     13 C          -1.2385    1.1250    1.0843 C.3     1  UNL1        0.0711
     14 C          -3.1689    1.2090    1.4606 C.3     1  UNL1        0.0711
     15 O          -4.3532    0.7668    0.6507 O.3     1  UNL1       -0.3752
     16 C          -4.1806    0.7424   -0.8475 C.3     1  UNL1        0.0711
     17 C          -3.0525    1.4937   -1.6911 C.3     1  UNL1        0.0711
     18 O          -1.9779    2.1799   -1.1051 O.3     1  UNL1       -0.3752
     19 C          -2.4169    2.9098   -0.0441 C.3     1  UNL1        0.0711
     20 C          -4.3523    3.5603   -0.1424 C.3     1  UNL1        0.0711
     21 O          -5.4613    3.2152   -0.7750 O.3     1  UNL1       -0.3762
     22 C          -4.9278    3.2972   -2.0087 C.3     1  UNL1        0.0605
     23 C          -4.3278    4.4236   -2.6779 C.3     1  UNL1        0.0224
     24 N          -3.2015    5.1474   -2.0551 N.3     1  UNL1       -0.2977
     25 C          -4.0911    6.1158   -1.5100 C.3     1  UNL1        0.0118
     26 C          -5.3059    5.7736   -0.0321 C.3     1  UNL1        0.0120
     27 N          -4.2766    5.4176    1.4490 N.3     1  UNL1       -0.2955
     28 C          -3.0868    6.2539    1.8570 C.3     1  UNL1        0.0311
     29 C          -1.8667    6.5993    0.9896 C.ar    1  UNL1        0.0498
     30 C          -0.6244    5.9869    1.1864 C.ar    1  UNL1        0.1285
     31 O          -0.2562    4.9511    2.0194 O.3     1  UNL1       -0.4947
     32 C          -1.1472    4.3504    2.9457 C.3     1  UNL1        0.0788
     33 C           0.3578    6.4915    0.3399 C.ar    1  UNL1       -0.0116
     34 C           0.0926    7.2492   -0.8394 C.ar    1  UNL1       -0.0090
     35 C           1.1568    7.6089   -1.7438 C.ar    1  UNL1        0.0065
     36 C           1.4155    8.8233   -2.1872 C.ar    1  UNL1        0.0159
     37 N           2.4607    9.1164   -3.0048 N.ar    1  UNL1       -0.3171
     38 C           2.7207   10.4654   -3.3925 C.3     1  UNL1        0.0147
     39 C           3.5108    8.2877   -3.3854 C.ar    1  UNL1        0.2603
     40 C           3.7156    6.6903   -2.6618 C.ar    1  UNL1        0.0653
     41 C           1.9842    6.6186   -2.3190 C.ar    1  UNL1       -0.0007
     42 C           1.1225    5.3044   -2.6964 C.ar    1  UNL1       -0.0351
     43 C           1.8779    4.0096   -3.5422 C.ar    1  UNL1        0.0282
     44 N           3.3344    3.7679   -4.0427 N.ar    1  UNL1       -0.2625
     45 C           4.2594    4.9114   -3.7526 C.ar    1  UNL1        0.0405
     46 O           4.2731    8.7766   -4.2366 O.2     1  UNL1       -0.2670
     47 C          -1.1558    7.6265   -1.1690 C.ar    1  UNL1       -0.0116
     48 C          -2.0248    7.5582   -0.1151 C.ar    1  UNL1        0.1285
     49 O          -3.1818    8.2755   -0.4609 O.3     1  UNL1       -0.4947
     50 C          -4.3117    7.7586    0.1370 C.3     1  UNL1        0.0788
     51 C          -3.2171    4.4166    1.1157 C.3     1  UNL1        0.0120
     52 C          -2.4146    4.7237   -0.7563 C.3     1  UNL1        0.0118
     53 O          -0.7555   -2.5535    2.8107 O.2     1  UNL1       -0.2733
     54 C           2.7221   -2.0865    1.4205 C.2     1  UNL1        0.2371
     55 N           3.3354   -2.7110    2.4859 N.am    1  UNL1       -0.2858
     56 C           4.5527   -2.1189    3.0580 C.3     1  UNL1        0.1047
     57 C           5.5909   -1.6714    2.0034 C.2     1  UNL1        0.2339
     58 N           5.9645   -0.3284    2.0082 N.am    1  UNL1       -0.3097
     59 C           6.8956    0.1584    1.0011 C.3     1  UNL1        0.0369
     60 C           6.3307    1.2566    0.1576 C.ar    1  UNL1       -0.0303
     61 C           6.8778    2.5303    0.2793 C.ar    1  UNL1       -0.0565
     62 C           6.2868    3.5917   -0.3399 C.ar    1  UNL1       -0.0532
     63 C           5.3316    3.3845   -1.2817 C.ar    1  UNL1       -0.0095
     64 C           4.8782    4.6487   -1.8576 C.ar    1  UNL1        0.0417
     65 C           3.3694    4.9113   -2.1250 C.ar    1  UNL1        0.0531
     66 C           2.5067    4.3701   -1.0661 C.3     1  UNL1       -0.0212
     67 N           2.9268    5.9187   -3.9626 N.ar    1  UNL1       -0.2520
     68 C           4.5056    6.6190   -4.4748 C.ar    1  UNL1        0.0655
     69 S           6.2058    5.8414   -3.1222 S.2     1  UNL1       -0.0752
     70 C           4.7709    2.0998   -1.4747 C.ar    1  UNL1       -0.0532
     71 C           5.2845    1.0345   -0.7408 C.ar    1  UNL1       -0.0565
     72 O           6.0394   -2.4806    1.1911 O.2     1  UNL1       -0.2738
     73 C           5.0887   -3.2494    3.9609 C.3     1  UNL1        0.0018
     74 C           3.8365   -4.0222    4.3793 C.3     1  UNL1        0.0731
     75 O           3.1398   -3.3346    5.4213 O.3     1  UNL1       -0.3902
     76 C           2.9894   -4.0096    3.1138 C.3     1  UNL1        0.0416
     77 O           3.3471   -1.4331    0.5910 O.2     1  UNL1       -0.2735
     78 H           1.0914   -2.8663   -1.9985 H       1  UNL1        0.0236
     79 H           2.4344   -2.4209   -1.0046 H       1  UNL1        0.0236
     80 H           1.0969   -1.2674   -1.1929 H       1  UNL1        0.0236
     81 H          -1.0939   -3.4382   -1.0998 H       1  UNL1        0.0236
     82 H          -1.2815   -3.3827    0.6612 H       1  UNL1        0.0236
     83 H          -0.7052   -1.9740   -0.4135 H       1  UNL1        0.0236
     84 H           2.0687   -4.5006    0.5338 H       1  UNL1        0.0236
     85 H           0.4226   -4.7868    1.1760 H       1  UNL1        0.0236
     86 H           0.7402   -4.9525   -0.5703 H       1  UNL1        0.0236
     87 H           1.0192   -2.7297    2.2264 H       1  UNL1        0.0600
     88 H           0.6113   -0.1302    0.9305 H       1  UNL1        0.1495
     89 H          -2.3513   -0.2977    3.1733 H       1  UNL1        0.0656
     90 H          -2.2474   -0.1834    1.6586 H       1  UNL1        0.0656
     91 H          -2.2184   -2.1852    0.2661 H       1  UNL1        0.0583
     92 H          -3.4487   -1.8616   -0.6363 H       1  UNL1        0.0583
     93 H          -1.7226   -0.3875   -1.8477 H       1  UNL1        0.0583
     94 H          -2.2609    0.3850   -0.4381 H       1  UNL1        0.0583
     95 H          -0.8511    0.4150    1.7021 H       1  UNL1        0.0583
     96 H          -0.6126    1.7562    1.7378 H       1  UNL1        0.0583
     97 H          -3.3233    1.8052    2.4036 H       1  UNL1        0.0583
     98 H          -3.3675    1.7935    0.6901 H       1  UNL1        0.0583
     99 H          -3.6703   -0.0998   -0.9087 H       1  UNL1        0.0583
    100 H          -4.8452    0.1471   -1.4597 H       1  UNL1        0.0583
    101 H          -2.9342    1.7045   -2.7622 H       1  UNL1        0.0583
    102 H          -3.9601    1.8990   -1.4651 H       1  UNL1        0.0583
    103 H          -2.0827    2.6506    0.9518 H       1  UNL1        0.0583
    104 H          -1.5021    3.5362    0.4772 H       1  UNL1        0.0583
    105 H          -5.0534    3.7610    0.9637 H       1  UNL1        0.0583
    106 H          -4.1320    4.5735   -0.3933 H       1  UNL1        0.0583
    107 H          -3.8360    3.2170   -1.9167 H       1  UNL1        0.0572
    108 H          -5.4582    2.4791   -2.4287 H       1  UNL1        0.0572
    109 H          -3.9318    3.9983   -3.5781 H       1  UNL1        0.0449
    110 H          -5.2219    5.0080   -2.6716 H       1  UNL1        0.0449
    111 H          -3.1616    6.3773   -1.1199 H       1  UNL1        0.0439
    112 H          -4.2688    6.9093   -2.2181 H       1  UNL1        0.0439
    113 H          -6.0525    5.0827   -0.4490 H       1  UNL1        0.0439
    114 H          -5.9319    6.4965    0.5248 H       1  UNL1        0.0439
    115 H          -3.3596    7.1193    2.3797 H       1  UNL1        0.0478
    116 H          -2.7970    5.6147    2.6322 H       1  UNL1        0.0478
    117 H          -1.6881    5.0141    3.6029 H       1  UNL1        0.0660
    118 H          -1.8129    3.7262    2.4495 H       1  UNL1        0.0660
    119 H          -0.8120    3.5192    3.5402 H       1  UNL1        0.0660
    120 H           1.3909    6.3537    0.6048 H       1  UNL1        0.0660
    121 H           0.7939    9.6342   -1.8643 H       1  UNL1        0.0816
    122 H           3.7382   10.7045   -3.0469 H       1  UNL1        0.0457
    123 H           2.6933   10.5296   -4.4855 H       1  UNL1        0.0457
    124 H           1.9937   11.1076   -2.9244 H       1  UNL1        0.0457
    125 H           0.5861    5.0130   -1.6586 H       1  UNL1        0.0639
    126 H           1.5956    3.0023   -3.2497 H       1  UNL1        0.0830
    127 H           4.9037    4.8675   -4.6500 H       1  UNL1        0.0837
    128 H          -1.4353    8.0754   -2.1194 H       1  UNL1        0.0660
    129 H          -3.9090    6.7647    0.2071 H       1  UNL1        0.0660
    130 H          -4.5088    7.7804    1.1931 H       1  UNL1        0.0660
    131 H          -5.2844    7.7717   -0.4778 H       1  UNL1        0.0660
    132 H          -3.7903    3.1798    1.2879 H       1  UNL1        0.0439
    133 H          -3.1777    3.6341    1.9383 H       1  UNL1        0.0439
    134 H          -1.9500    3.9827   -1.4659 H       1  UNL1        0.0439
    135 H          -1.4058    4.9868   -0.5055 H       1  UNL1        0.0439
    136 H           4.2579   -1.2594    3.6689 H       1  UNL1        0.0597
    137 H           5.5685    0.3510    2.6491 H       1  UNL1        0.1491
    138 H           7.7814    0.5500    1.5162 H       1  UNL1        0.0512
    139 H           7.2241   -0.6462    0.3457 H       1  UNL1        0.0512
    140 H           7.7721    2.7167    0.8521 H       1  UNL1        0.0621
    141 H           6.5195    4.6190   -0.1151 H       1  UNL1        0.0624
    142 H           2.2792    5.3002   -0.5648 H       1  UNL1        0.0293
    143 H           1.7163    3.7331   -1.4505 H       1  UNL1        0.0293
    144 H           2.8643    3.6421   -0.3873 H       1  UNL1        0.0293
    145 H           4.7445    6.9177   -5.4437 H       1  UNL1        0.0907
    146 H           3.9273    1.9106   -2.1425 H       1  UNL1        0.0624
    147 H           4.9022    0.0274   -0.8853 H       1  UNL1        0.0621
    148 H           5.6454   -2.8698    4.8212 H       1  UNL1        0.0313
    149 H           5.7611   -3.9115    3.4013 H       1  UNL1        0.0313
    150 H           4.0654   -5.0266    4.7511 H       1  UNL1        0.0610
    151 H           2.8543   -2.4695    5.0793 H       1  UNL1        0.2098
    152 H           3.2647   -4.8350    2.4423 H       1  UNL1        0.0490
    153 H           1.9244   -4.0962    3.3351 H       1  UNL1        0.0490
@<TRIPOS>BOND
     1     1     2    1
     2     2     3    1
     3     2     4    1
     4     6     7   am
     5     7     8    1
     6     8     9    1
     7     9    10    1
     8    10    11    1
     9    11    12    1
    10    12    13    1
    11    13    14    1
    12    14    15    1
    13    15    16    1
    14    16    17    1
    15    17    18    1
    16    18    19    1
    17    19    20    1
    18    20    21    1
    19    21    22    1
    20    22    23    1
    21    23    24    1
    22    24    25    1
    23    25    26    1
    24    26    27    1
    25    27    28    1
    26    28    29    1
    27    29    30   ar
    28    30    31    1
    29    31    32    1
    30    30    33   ar
    31    33    34   ar
    32    34    35    1
    33    35    36   ar
    34    36    37   ar
    35    37    38    1
    36    37    39   ar
    37    39    40   ar
    38    40    41   ar
    39    35    41   ar
    40    41    42   ar
    41    42    43   ar
    42    43    44   ar
    43    44    45   ar
    44    40    45   ar
    45    39    46    2
    46    34    47   ar
    47    47    48   ar
    48    29    48   ar
    49    48    49    1
    50    49    50    1
    51    27    51    1
    52    51    52    1
    53    24    52    1
    54     7    53    2
    55     5    54    1
    56    54    55   am
    57    55    56    1
    58    56    57    1
    59    57    58   am
    60    58    59    1
    61    59    60    1
    62    60    61   ar
    63    61    62   ar
    64    62    63   ar
    65    63    64    1
    66    64    65   ar
    67    65    66    1
    68    65    67   ar
    69    67    68   ar
    70    68    69   ar
    71    64    69   ar
    72    63    70   ar
    73    70    71   ar
    74    60    71   ar
    75    57    72    2
    76    56    73    1
    77    73    74    1
    78    74    75    1
    79    74    76    1
    80    55    76    1
    81    54    77    2
    82     1    78    1
    83     1    79    1
    84     1    80    1
    85     3    81    1
    86     3    82    1
    87     3    83    1
    88     4    84    1
    89     4    85    1
    90     4    86    1
    91     5    87    1
    92     6    88    1
    93     8    89    1
    94     8    90    1
    95    10    91    1
    96    10    92    1
    97    11    93    1
    98    11    94    1
    99    13    95    1
   100    13    96    1
   101    14    97    1
   102    14    98    1
   103    16    99    1
   104    16   100    1
   105    17   101    1
   106    17   102    1
   107    19   103    1
   108    19   104    1
   109    20   105    1
   110    20   106    1
   111    22   107    1
   112    22   108    1
   113    23   109    1
   114    23   110    1
   115    25   111    1
   116    25   112    1
   117    26   113    1
   118    26   114    1
   119    28   115    1
   120    28   116    1
   121    32   117    1
   122    32   118    1
   123    32   119    1
   124    33   120    1
   125    36   121    1
   126    38   122    1
   127    38   123    1
   128    38   124    1
   129    42   125    1
   130    43   126    1
   131    45   127    1
   132    47   128    1
   133    50   129    1
   134    50   130    1
   135    50   131    1
   136    51   132    1
   137    51   133    1
   138    52   134    1
   139    52   135    1
   140    56   136    1
   141    58   137    1
   142    59   138    1
   143    59   139    1
   144    61   140    1
   145    62   141    1
   146    66   142    1
   147    66   143    1
   148    66   144    1
   149    68   145    1
   150    70   146    1
   151    71   147    1
   152    73   148    1
   153    73   149    1
   154    74   150    1
   155    75   151    1
   156    76   152    1
   157    76   153    1
   158     5     6    1
   159     5     2    1
