@<TRIPOS>MOLECULE
*****
 144 151 0 0 0
SMALL
GASTEIGER

@<TRIPOS>ATOM
      1 C           1.0734   -1.7058    1.0989 C.3     1  UNL1        0.0788
      2 O          -0.0134   -0.9211    1.4012 O.3     1  UNL1       -0.4947
      3 C          -0.8010   -1.1353    2.4495 C.ar    1  UNL1        0.1285
      4 C          -2.0535   -0.8634    2.4704 C.ar    1  UNL1       -0.0116
      5 C          -2.7094   -0.5675    3.7137 C.ar    1  UNL1       -0.0090
      6 C          -4.0224   -0.0420    3.6723 C.ar    1  UNL1        0.0065
      7 C          -5.0283   -0.6197    2.9155 C.ar    1  UNL1       -0.0007
      8 C          -6.2386    0.0245    2.8419 C.ar    1  UNL1        0.0653
      9 C          -7.2138   -0.6665    2.2585 C.ar    1  UNL1        0.0405
     10 N          -7.1027   -1.9902    2.0508 N.ar    1  UNL1       -0.2625
     11 C          -5.9149   -2.5808    2.2842 C.ar    1  UNL1        0.0282
     12 C          -4.7887   -1.8776    2.4386 C.ar    1  UNL1       -0.0351
     13 C          -4.4488    1.0551    4.2523 C.ar    1  UNL1        0.0159
     14 N          -5.5360    1.8362    4.1500 N.ar    1  UNL1       -0.3171
     15 C          -5.5716    3.2505    4.6487 C.3     1  UNL1        0.0147
     16 C          -6.5284    1.3436    3.4122 C.ar    1  UNL1        0.2603
     17 O          -7.5878    1.9253    3.2939 O.2     1  UNL1       -0.2670
     18 C          -2.2638   -0.8829    4.9807 C.ar    1  UNL1       -0.0116
     19 C          -1.0898   -1.4478    5.0637 C.ar    1  UNL1        0.1285
     20 O          -0.6236   -1.8732    6.3557 O.3     1  UNL1       -0.4947
     21 C           0.8714   -2.5351    7.0164 C.3     1  UNL1        0.0788
     22 C          -0.5359   -1.3976    3.7391 C.ar    1  UNL1        0.0498
     23 C           0.7520   -1.6274    3.7098 C.3     1  UNL1        0.0311
     24 N           1.0245   -0.5536    4.2306 N.3     1  UNL1       -0.2955
     25 C           1.9176    0.1914    3.2875 C.3     1  UNL1        0.0120
     26 C           0.6237    1.5776    3.6292 C.3     1  UNL1        0.0118
     27 N           0.5917    2.6038    5.4912 N.3     1  UNL1       -0.2977
     28 C           2.1126    3.4036    6.1200 C.3     1  UNL1        0.0224
     29 C           3.6294    3.1830    5.5957 C.3     1  UNL1        0.0605
     30 O           4.2701    2.4854    4.5508 O.3     1  UNL1       -0.3762
     31 C           3.6650    1.3702    4.1090 C.3     1  UNL1        0.0711
     32 C           3.6517    0.0639    5.5910 C.3     1  UNL1        0.0711
     33 O           3.1951    0.6002    7.0348 O.3     1  UNL1       -0.3742
     34 C           4.2029    1.1578    7.5750 C.3     1  UNL1        0.0818
     35 C           5.1498    0.0304    6.8948 C.3     1  UNL1        0.1128
     36 O           5.4214   -0.5255    5.1269 O.3     1  UNL1       -0.4893
     37 C           4.3502   -1.4787    4.3388 C.ar    1  UNL1        0.1259
     38 C           4.5775   -2.6304    3.7681 C.ar    1  UNL1       -0.0113
     39 C           3.5302   -3.3508    2.9590 C.ar    1  UNL1       -0.0061
     40 C           3.9693   -4.0375    1.8757 C.ar    1  UNL1        0.0418
     41 C           3.6531   -3.8959    0.5583 C.ar    1  UNL1        0.0531
     42 C           2.9688   -2.8590   -0.1438 C.3     1  UNL1       -0.0212
     43 N           4.1167   -4.8786   -0.1817 N.ar    1  UNL1       -0.2520
     44 C           4.7112   -5.7121    0.6263 C.ar    1  UNL1        0.0655
     45 S           4.7332   -5.4556    2.2859 S.2     1  UNL1       -0.0752
     46 C           2.2059   -3.6128    3.0735 C.ar    1  UNL1       -0.0529
     47 C           2.0547   -3.0306    4.2053 C.ar    1  UNL1       -0.0530
     48 C           2.8753   -1.3388    4.4405 C.ar    1  UNL1        0.0113
     49 C           2.0824    0.3288    5.3517 C.3     1  UNL1        0.0403
     50 N           0.8573    0.9668    5.1259 N.am    1  UNL1       -0.3095
     51 C          -0.8769    1.3078    5.1092 C.2     1  UNL1        0.2339
     52 C          -1.2291    2.4978    4.0417 C.3     1  UNL1        0.1047
     53 C          -2.4684    2.8844    4.5798 C.3     1  UNL1        0.0018
     54 C          -3.0951    3.1017    3.2486 C.3     1  UNL1        0.0731
     55 O          -2.9885    4.4500    2.9300 O.3     1  UNL1       -0.3902
     56 C          -2.6263    2.1520    2.1692 C.3     1  UNL1        0.0416
     57 N          -1.2985    2.0890    2.4579 N.am    1  UNL1       -0.2858
     58 C          -0.3059    1.7886    1.3525 C.2     1  UNL1        0.2371
     59 C           1.3726    2.0206    1.5632 C.3     1  UNL1        0.1045
     60 C           1.7758    3.3897    2.5370 C.3     1  UNL1       -0.0108
     61 C           1.6426    3.6940    3.9525 C.3     1  UNL1       -0.0579
     62 C           3.1738    3.7612    2.4743 C.3     1  UNL1       -0.0579
     63 C           0.6301    4.2900    2.3096 C.3     1  UNL1       -0.0579
     64 N           2.5102    1.5697    0.8205 N.am    1  UNL1       -0.3022
     65 C           3.4808    0.5197    0.8185 C.2     1  UNL1        0.2337
     66 C           4.1735    0.4130   -0.4277 C.3     1  UNL1        0.1329
     67 C           3.1375    0.2952   -1.3890 C.1     1  UNL1        0.0786
     68 N           2.1525    0.2415   -1.9925 N.1     1  UNL1       -0.1955
     69 C           5.4439   -0.4183   -0.6618 C.3     1  UNL1       -0.0241
     70 C           5.4837    1.0948   -0.6408 C.3     1  UNL1       -0.0241
     71 O           3.7978   -0.3984    1.5471 O.2     1  UNL1       -0.2741
     72 O          -0.5962    1.2126    0.3118 O.2     1  UNL1       -0.2735
     73 O          -1.6155    1.1477    6.1247 O.2     1  UNL1       -0.2738
     74 C           0.3048    1.2393    6.8394 C.3     1  UNL1        0.0118
     75 C           0.8634   -0.6178    6.2498 C.3     1  UNL1        0.0120
     76 H           1.5124   -1.2481    0.2388 H       1  UNL1        0.0660
     77 H           0.8990   -2.7667    1.1537 H       1  UNL1        0.0660
     78 H           2.0060   -1.6314    1.6395 H       1  UNL1        0.0660
     79 H          -2.4445   -0.8372    1.4827 H       1  UNL1        0.0660
     80 H          -8.1293   -0.1560    2.0329 H       1  UNL1        0.0837
     81 H          -5.8886   -3.6499    2.4009 H       1  UNL1        0.0830
     82 H          -3.8043   -2.3050    2.3157 H       1  UNL1        0.0639
     83 H          -3.8735    1.6371    4.7798 H       1  UNL1        0.0816
     84 H          -5.8190    3.9412    3.8203 H       1  UNL1        0.0457
     85 H          -6.3138    3.2804    5.4203 H       1  UNL1        0.0457
     86 H          -4.6260    3.6228    5.0797 H       1  UNL1        0.0457
     87 H          -2.7533   -0.6272    5.8916 H       1  UNL1        0.0660
     88 H           1.3299   -3.0497    6.2079 H       1  UNL1        0.0660
     89 H           1.9468   -2.2925    6.4871 H       1  UNL1        0.0660
     90 H           1.1365   -1.8349    7.9046 H       1  UNL1        0.0660
     91 H           0.8993   -1.8784    4.7682 H       1  UNL1        0.0478
     92 H           1.5645   -1.6084    3.0318 H       1  UNL1        0.0478
     93 H           3.2848   -0.0764    3.2885 H       1  UNL1        0.0439
     94 H           2.0154   -0.1384    2.2649 H       1  UNL1        0.0439
     95 H          -0.2288    0.8178    3.4101 H       1  UNL1        0.0439
     96 H           0.4451    2.2983    3.0076 H       1  UNL1        0.0439
     97 H           2.3997    4.3424    5.5892 H       1  UNL1        0.0449
     98 H           1.7550    3.6956    7.0871 H       1  UNL1        0.0449
     99 H           4.4983    3.2383    6.1688 H       1  UNL1        0.0572
    100 H           3.1926    2.4672    6.1667 H       1  UNL1        0.0572
    101 H           2.6696    1.6942    3.7079 H       1  UNL1        0.0583
    102 H           3.6563    1.3349    2.9571 H       1  UNL1        0.0583
    103 H           2.5353   -0.9464    5.6299 H       1  UNL1        0.0583
    104 H           3.9126   -0.9106    5.9471 H       1  UNL1        0.0583
    105 H           4.2568    1.5899    6.6606 H       1  UNL1        0.0594
    106 H           3.2648    1.7051    7.9866 H       1  UNL1        0.0594
    107 H           5.8147    0.8302    6.8448 H       1  UNL1        0.0720
    108 H           4.6905   -0.8530    7.3479 H       1  UNL1        0.0720
    109 H           5.5923   -2.8619    3.8637 H       1  UNL1        0.0660
    110 H           3.4764   -2.1860   -0.7989 H       1  UNL1        0.0293
    111 H           1.9503   -3.0887   -0.4967 H       1  UNL1        0.0293
    112 H           3.0475   -2.1941    0.6645 H       1  UNL1        0.0293
    113 H           5.1872   -6.5575    0.2231 H       1  UNL1        0.0907
    114 H           1.3056   -3.9126    2.5019 H       1  UNL1        0.0624
    115 H           0.6402   -3.2480    4.1536 H       1  UNL1        0.0622
    116 H           1.7176    0.5460    6.8580 H       1  UNL1        0.0513
    117 H           2.5320    1.3040    5.4989 H       1  UNL1        0.0513
    118 H           1.4149    1.7680    4.8470 H       1  UNL1        0.1491
    119 H          -0.8322    3.4994    4.2101 H       1  UNL1        0.0597
    120 H          -2.4363    3.5672    5.4243 H       1  UNL1        0.0313
    121 H          -2.6319    2.0399    5.1754 H       1  UNL1        0.0313
    122 H          -4.1159    2.9912    3.2286 H       1  UNL1        0.0610
    123 H          -2.0507    4.5604    2.7625 H       1  UNL1        0.2098
    124 H          -3.0001    1.1550    2.1613 H       1  UNL1        0.0490
    125 H          -2.7289    2.5159    1.1851 H       1  UNL1        0.0490
    126 H           1.2250    1.0711    1.9417 H       1  UNL1        0.0600
    127 H           2.2075    2.9514    4.4014 H       1  UNL1        0.0236
    128 H           1.0514    4.3412    4.7084 H       1  UNL1        0.0236
    129 H           0.6937    3.3636    4.0001 H       1  UNL1        0.0236
    130 H           3.2437    3.8603    1.4398 H       1  UNL1        0.0236
    131 H           3.3180    4.5773    3.1812 H       1  UNL1        0.0236
    132 H           3.9012    3.0064    2.7052 H       1  UNL1        0.0236
    133 H           0.5884    4.2914    1.2776 H       1  UNL1        0.0236
    134 H          -0.3208    3.8361    2.5451 H       1  UNL1        0.0236
    135 H           0.6137    5.0993    3.0364 H       1  UNL1        0.0236
    136 H           2.4118    2.2458    0.1102 H       1  UNL1        0.1495
    137 H           6.0323   -1.0290    0.0296 H       1  UNL1        0.0286
    138 H           5.4819   -0.9778   -1.5876 H       1  UNL1        0.0286
    139 H           5.6156    1.6890   -1.5298 H       1  UNL1        0.0286
    140 H           6.0168    1.6040    0.1537 H       1  UNL1        0.0286
    141 H          -0.2428    0.3314    6.4548 H       1  UNL1        0.0439
    142 H           0.4547    1.5126    7.8289 H       1  UNL1        0.0439
    143 H           1.9203   -0.8682    7.1777 H       1  UNL1        0.0439
    144 H           2.2160   -0.8185    6.8322 H       1  UNL1        0.0439
@<TRIPOS>BOND
     1     1     2    1
     2     2     3    1
     3     3     4   ar
     4     4     5   ar
     5     5     6    1
     6     6     7   ar
     7     7     8   ar
     8     8     9   ar
     9     9    10   ar
    10    10    11   ar
    11    11    12   ar
    12     7    12   ar
    13     6    13   ar
    14    13    14   ar
    15    14    15    1
    16    14    16   ar
    17     8    16   ar
    18    16    17    2
    19     5    18   ar
    20    18    19   ar
    21    19    20    1
    22    20    21    1
    23    19    22   ar
    24     3    22   ar
    25    22    23    1
    26    23    24    1
    27    24    25    1
    28    25    26    1
    29    26    27    1
    30    27    28    1
    31    28    29    1
    32    29    30    1
    33    30    31    1
    34    31    32    1
    35    32    33    1
    36    33    34    1
    37    34    35    1
    38    35    36    1
    39    36    37    1
    40    37    38   ar
    41    38    39   ar
    42    39    40    1
    43    40    41   ar
    44    41    42    1
    45    41    43   ar
    46    43    44   ar
    47    44    45   ar
    48    40    45   ar
    49    39    46   ar
    50    46    47   ar
    51    47    48   ar
    52    37    48   ar
    53    48    49    1
    54    49    50    1
    55    50    51   am
    56    52    53    1
    57    53    54    1
    58    54    55    1
    59    54    56    1
    60    56    57    1
    61    52    57    1
    62    57    58   am
    63    60    61    1
    64    60    62    1
    65    60    63    1
    66    59    64    1
    67    64    65   am
    68    65    66    1
    69    66    67    1
    70    67    68    3
    71    66    69    1
    72    69    70    1
    73    66    70    1
    74    65    71    2
    75    58    72    2
    76    51    73    2
    77    27    74    1
    78    74    75    1
    79    24    75    1
    80     1    76    1
    81     1    77    1
    82     1    78    1
    83     4    79    1
    84     9    80    1
    85    11    81    1
    86    12    82    1
    87    13    83    1
    88    15    84    1
    89    15    85    1
    90    15    86    1
    91    18    87    1
    92    21    88    1
    93    21    89    1
    94    21    90    1
    95    23    91    1
    96    23    92    1
    97    25    93    1
    98    25    94    1
    99    26    95    1
   100    26    96    1
   101    28    97    1
   102    28    98    1
   103    29    99    1
   104    29   100    1
   105    31   101    1
   106    31   102    1
   107    32   103    1
   108    32   104    1
   109    34   105    1
   110    34   106    1
   111    35   107    1
   112    35   108    1
   113    38   109    1
   114    42   110    1
   115    42   111    1
   116    42   112    1
   117    44   113    1
   118    46   114    1
   119    47   115    1
   120    49   116    1
   121    49   117    1
   122    50   118    1
   123    53   120    1
   124    53   121    1
   125    54   122    1
   126    55   123    1
   127    56   124    1
   128    56   125    1
   129    59   126    1
   130    61   127    1
   131    61   128    1
   132    61   129    1
   133    62   130    1
   134    62   131    1
   135    62   132    1
   136    63   133    1
   137    63   134    1
   138    63   135    1
   139    64   136    1
   140    69   137    1
   141    69   138    1
   142    70   139    1
   143    70   140    1
   144    74   141    1
   145    74   142    1
   146    75   143    1
   147    75   144    1
   148    52   119    1
   149    52    51    1
   150    59    60    1
   151    59    58    1
