@<TRIPOS>MOLECULE
*****
 146 153 0 0 0
SMALL
GASTEIGER

@<TRIPOS>ATOM
      1 C          -5.6566   -8.4429   -2.4380 C.3     1  UNL1       -0.0212
      2 C          -5.1349   -9.0892   -3.6515 C.ar    1  UNL1        0.0531
      3 C          -3.7974   -9.0922   -4.0369 C.ar    1  UNL1        0.0418
      4 S          -3.7470   -9.6123   -5.7229 S.2     1  UNL1       -0.0752
      5 C          -5.3957  -10.0919   -5.5881 C.ar    1  UNL1        0.0655
      6 N          -6.0347   -9.6569   -4.5294 N.ar    1  UNL1       -0.2520
      7 C          -2.6142   -8.8327   -3.1179 C.ar    1  UNL1       -0.0061
      8 C          -1.4135   -7.9821   -3.4438 C.ar    1  UNL1       -0.0529
      9 C          -0.1672   -7.8736   -2.4016 C.ar    1  UNL1       -0.0530
     10 C          -0.2031   -8.6450   -0.9568 C.ar    1  UNL1        0.0113
     11 C           0.9055   -8.2837    0.0357 C.3     1  UNL1        0.0403
     12 N           2.2157   -8.5902   -0.4747 N.am    1  UNL1       -0.3095
     13 C           3.3354   -8.0379   -0.9764 C.2     1  UNL1        0.2339
     14 C           4.4192   -9.1028   -1.5065 C.3     1  UNL1        0.1047
     15 C           5.7965   -8.5521   -1.8744 C.3     1  UNL1        0.0018
     16 C           6.2618   -9.5100   -2.9705 C.3     1  UNL1        0.0731
     17 O           6.8025  -10.7202   -2.4215 O.3     1  UNL1       -0.3902
     18 C           4.9815   -9.8107   -3.7431 C.3     1  UNL1        0.0416
     19 N           3.9392   -9.8230   -2.7302 N.am    1  UNL1       -0.2858
     20 C           2.7635  -10.5169   -3.0235 C.2     1  UNL1        0.2371
     21 C           1.7373  -10.7586   -1.9210 C.3     1  UNL1        0.1045
     22 C           2.2459  -11.4177   -0.4885 C.3     1  UNL1       -0.0108
     23 C           3.2560  -12.3928   -1.0121 C.3     1  UNL1       -0.0579
     24 C           2.9275  -10.6492    0.7661 C.3     1  UNL1       -0.0579
     25 C           1.0812  -12.0872    0.2212 C.3     1  UNL1       -0.0579
     26 N           0.5934  -11.5164   -2.3386 N.am    1  UNL1       -0.3009
     27 C          -0.5866  -10.9941   -2.6161 C.2     1  UNL1        0.2508
     28 C          -1.8078  -11.7626   -2.6184 C.3     1  UNL1        0.1868
     29 F          -2.5014  -11.8595   -1.4250 F       1  UNL1       -0.2320
     30 C          -2.3640  -11.5968   -4.0055 C.3     1  UNL1       -0.0068
     31 C          -2.3522  -12.8693   -3.3109 C.3     1  UNL1       -0.0068
     32 O          -0.5817   -9.9314   -2.8645 O.2     1  UNL1       -0.2723
     33 O           2.4780  -10.8972   -4.1622 O.2     1  UNL1       -0.2735
     34 O           3.4455   -6.8275   -0.9678 O.2     1  UNL1       -0.2738
     35 C          -1.3166   -9.6706   -0.6723 C.ar    1  UNL1        0.1259
     36 O          -1.4574  -10.3657    0.6174 O.3     1  UNL1       -0.4893
     37 C          -2.7267  -11.1089    0.9796 C.3     1  UNL1        0.1128
     38 C          -4.2378  -10.4301    0.8175 C.3     1  UNL1        0.0818
     39 O          -4.4880   -9.3679   -0.1035 O.3     1  UNL1       -0.3742
     40 C          -3.3933   -8.4082   -0.1652 C.3     1  UNL1        0.0711
     41 C          -2.2586   -7.7476    0.6545 C.3     1  UNL1        0.0711
     42 O          -1.9812   -7.9647    2.0224 O.3     1  UNL1       -0.3752
     43 C          -3.2360   -8.4406    2.5211 C.3     1  UNL1        0.0711
     44 C          -4.7186   -7.6613    2.0988 C.3     1  UNL1        0.0716
     45 O          -5.1088   -7.1652    0.7365 O.3     1  UNL1       -0.3683
     46 C          -4.3431   -6.1375    0.0575 C.3     1  UNL1        0.1237
     47 C          -3.7635   -5.1447    1.0193 C.2     1  UNL1        0.2391
     48 N          -2.4432   -5.2522    1.4960 N.am    1  UNL1       -0.3081
     49 C          -2.0799   -4.2653    2.4233 C.3     1  UNL1        0.0486
     50 C          -0.5999   -4.1661    2.6940 C.3     1  UNL1        0.0189
     51 N          -0.8299   -2.6075    2.8798 N.3     1  UNL1       -0.2945
     52 C          -1.3839   -1.9661    4.1566 C.3     1  UNL1        0.0277
     53 C          -2.6774   -2.4953    4.7274 C.ar    1  UNL1        0.0117
     54 C          -3.8220   -1.6767    4.6523 C.ar    1  UNL1       -0.0115
     55 C          -5.0538   -2.1434    5.1110 C.ar    1  UNL1        0.1284
     56 O          -6.0447   -1.1952    5.2240 O.3     1  UNL1       -0.4945
     57 C          -7.2746   -1.6057    5.8213 C.3     1  UNL1        0.0788
     58 C          -5.1900   -3.5187    5.3666 C.ar    1  UNL1        0.0292
     59 C          -6.5009   -4.1839    5.3833 C.ar    1  UNL1        0.0099
     60 C          -7.4139   -4.1469    4.2333 C.ar    1  UNL1       -0.0006
     61 C          -8.6892   -4.6740    4.3387 C.ar    1  UNL1        0.0653
     62 C          -9.5124   -4.5868    3.2451 C.ar    1  UNL1        0.0405
     63 N          -9.0540   -4.2218    2.0259 N.ar    1  UNL1       -0.2625
     64 C          -7.7934   -3.7523    1.9629 C.ar    1  UNL1        0.0282
     65 C          -7.0584   -3.4700    3.0732 C.ar    1  UNL1       -0.0351
     66 C          -6.9522   -4.7299    6.5227 C.ar    1  UNL1        0.0160
     67 N          -8.2143   -5.2760    6.6358 N.ar    1  UNL1       -0.3171
     68 C          -8.5977   -5.9311    7.8622 C.3     1  UNL1        0.0147
     69 C          -9.1334   -5.2983    5.5875 C.ar    1  UNL1        0.2603
     70 O         -10.2423   -5.8188    5.6508 O.2     1  UNL1       -0.2670
     71 C          -4.0627   -4.3362    5.4288 C.ar    1  UNL1       -0.0084
     72 C          -2.7864   -3.7983    5.2396 C.ar    1  UNL1        0.1253
     73 O          -1.7678   -4.7187    5.3285 O.3     1  UNL1       -0.4948
     74 C          -0.4090   -4.2952    5.3493 C.3     1  UNL1        0.0788
     75 C          -1.9567   -2.8435    1.9244 C.3     1  UNL1        0.0189
     76 O          -4.5076   -4.2501    1.4060 O.2     1  UNL1       -0.2733
     77 C          -2.5700   -9.6777   -1.8044 C.ar    1  UNL1       -0.0113
     78 H          -6.0344   -7.4585   -2.6853 H       1  UNL1        0.0293
     79 H          -6.3330   -9.0533   -1.8415 H       1  UNL1        0.0293
     80 H          -4.8686   -8.1587   -1.7891 H       1  UNL1        0.0293
     81 H          -5.8955  -10.6328   -6.3787 H       1  UNL1        0.0907
     82 H          -1.2978   -7.7872   -4.5383 H       1  UNL1        0.0624
     83 H           0.8903   -7.9172   -2.9164 H       1  UNL1        0.0622
     84 H           0.9063   -7.2196    0.1418 H       1  UNL1        0.0513
     85 H           0.7159   -8.8604    0.9668 H       1  UNL1        0.0513
     86 H           2.2320   -9.5422   -0.5785 H       1  UNL1        0.1491
     87 H           4.7825   -9.8125   -0.7585 H       1  UNL1        0.0597
     88 H           6.4860   -8.5726   -1.0147 H       1  UNL1        0.0313
     89 H           5.6949   -7.5266   -2.2180 H       1  UNL1        0.0313
     90 H           7.0466   -9.0632   -3.5815 H       1  UNL1        0.0610
     91 H           6.0994  -11.2167   -1.9697 H       1  UNL1        0.2098
     92 H           4.7430   -9.0127   -4.4494 H       1  UNL1        0.0490
     93 H           5.0158  -10.7757   -4.2562 H       1  UNL1        0.0490
     94 H           1.3945   -9.7400   -1.9649 H       1  UNL1        0.0600
     95 H           4.0707  -11.8499   -1.4907 H       1  UNL1        0.0236
     96 H           3.6851  -12.9593   -0.2024 H       1  UNL1        0.0236
     97 H           2.7800  -13.0180   -1.7720 H       1  UNL1        0.0236
     98 H           2.2693   -9.9569    1.3056 H       1  UNL1        0.0236
     99 H           3.4105  -11.2241    1.5440 H       1  UNL1        0.0236
    100 H           3.7214  -10.0110    0.4625 H       1  UNL1        0.0236
    101 H           0.4351  -11.3157    0.6229 H       1  UNL1        0.0236
    102 H           0.5048  -12.7365   -0.4326 H       1  UNL1        0.0236
    103 H           1.4367  -12.6499    1.0814 H       1  UNL1        0.0236
    104 H           0.5056  -12.4525   -2.5452 H       1  UNL1        0.1496
    105 H          -3.3815  -11.3040   -4.1050 H       1  UNL1        0.0302
    106 H          -1.6484  -11.1347   -4.7006 H       1  UNL1        0.0302
    107 H          -1.5750  -13.5489   -3.0860 H       1  UNL1        0.0302
    108 H          -3.3361  -13.0002   -2.8222 H       1  UNL1        0.0302
    109 H          -2.7137  -12.0492    0.4525 H       1  UNL1        0.0720
    110 H          -2.5997  -11.3935    2.0483 H       1  UNL1        0.0720
    111 H          -5.0317  -11.0043    1.2903 H       1  UNL1        0.0594
    112 H          -4.4899   -9.7311    1.5583 H       1  UNL1        0.0594
    113 H          -2.8599   -9.1956    0.1224 H       1  UNL1        0.0583
    114 H          -3.2500   -7.9703   -1.1712 H       1  UNL1        0.0583
    115 H          -1.5467   -7.1485    0.0384 H       1  UNL1        0.0583
    116 H          -2.9186   -7.0682    0.9826 H       1  UNL1        0.0583
    117 H          -3.0295   -9.3617    2.0549 H       1  UNL1        0.0583
    118 H          -3.3021   -8.9644    3.4719 H       1  UNL1        0.0583
    119 H          -5.5590   -8.3326    2.3866 H       1  UNL1        0.0583
    120 H          -4.7507   -6.8028    2.7430 H       1  UNL1        0.0583
    121 H          -3.4272   -6.4241   -0.4453 H       1  UNL1        0.0656
    122 H          -4.6111   -5.9438   -0.9875 H       1  UNL1        0.0656
    123 H          -1.8301   -6.0746    1.6521 H       1  UNL1        0.1491
    124 H          -2.7772   -4.4581    3.2251 H       1  UNL1        0.0523
    125 H          -0.3474   -4.9988    3.3683 H       1  UNL1        0.0445
    126 H           0.2586   -4.4069    2.0488 H       1  UNL1        0.0445
    127 H          -0.6794   -1.9226    5.0029 H       1  UNL1        0.0477
    128 H          -1.4781   -0.8763    4.0114 H       1  UNL1        0.0477
    129 H          -3.7381   -0.6825    4.2095 H       1  UNL1        0.0658
    130 H          -7.8561   -2.1765    5.1122 H       1  UNL1        0.0660
    131 H          -7.1436   -2.1496    6.7656 H       1  UNL1        0.0660
    132 H          -7.9424   -0.7684    5.9822 H       1  UNL1        0.0660
    133 H         -10.5554   -4.8718    3.3103 H       1  UNL1        0.0837
    134 H          -7.3149   -3.6849    0.9930 H       1  UNL1        0.0830
    135 H          -6.2222   -2.7819    3.0027 H       1  UNL1        0.0639
    136 H          -6.3439   -4.7160    7.4227 H       1  UNL1        0.0816
    137 H          -9.5130   -5.4690    8.2412 H       1  UNL1        0.0457
    138 H          -8.7904   -6.9853    7.6411 H       1  UNL1        0.0457
    139 H          -7.8033   -5.8507    8.6068 H       1  UNL1        0.0457
    140 H          -4.1992   -5.4062    5.5757 H       1  UNL1        0.0661
    141 H          -0.1299   -3.6817    4.5298 H       1  UNL1        0.0660
    142 H          -0.1165   -3.5420    6.0577 H       1  UNL1        0.0660
    143 H           0.2725   -5.1333    5.1735 H       1  UNL1        0.0660
    144 H          -1.6252   -2.8283    0.8863 H       1  UNL1        0.0445
    145 H          -2.8456   -2.2294    2.0385 H       1  UNL1        0.0445
    146 H          -3.5399  -10.2833   -1.6107 H       1  UNL1        0.0660
@<TRIPOS>BOND
     1     1     2    1
     2     2     3   ar
     3     3     4   ar
     4     4     5   ar
     5     5     6   ar
     6     2     6   ar
     7     3     7    1
     8     7     8   ar
     9     8     9   ar
    10     9    10   ar
    11    10    11    1
    12    11    12    1
    13    12    13   am
    14    14    15    1
    15    15    16    1
    16    16    17    1
    17    16    18    1
    18    18    19    1
    19    14    19    1
    20    19    20   am
    21    22    23    1
    22    22    24    1
    23    22    25    1
    24    21    26    1
    25    26    27   am
    26    27    28    1
    27    28    29    1
    28    28    30    1
    29    30    31    1
    30    28    31    1
    31    27    32    2
    32    20    33    2
    33    13    34    2
    34    10    35   ar
    35    35    36    1
    36    36    37    1
    37    37    38    1
    38    38    39    1
    39    39    40    1
    40    40    41    1
    41    41    42    1
    42    42    43    1
    43    43    44    1
    44    44    45    1
    45    45    46    1
    46    46    47    1
    47    47    48   am
    48    48    49    1
    49    49    50    1
    50    50    51    1
    51    51    52    1
    52    52    53    1
    53    53    54   ar
    54    54    55   ar
    55    55    56    1
    56    56    57    1
    57    55    58   ar
    58    58    59    1
    59    59    60   ar
    60    60    61   ar
    61    61    62   ar
    62    62    63   ar
    63    63    64   ar
    64    64    65   ar
    65    60    65   ar
    66    59    66   ar
    67    66    67   ar
    68    67    68    1
    69    67    69   ar
    70    61    69   ar
    71    69    70    2
    72    58    71   ar
    73    71    72   ar
    74    53    72   ar
    75    72    73    1
    76    73    74    1
    77    51    75    1
    78    49    75    1
    79    47    76    2
    80    35    77   ar
    81     7    77   ar
    82     1    78    1
    83     1    79    1
    84     1    80    1
    85     5    81    1
    86     8    82    1
    87     9    83    1
    88    11    84    1
    89    11    85    1
    90    12    86    1
    91    15    88    1
    92    15    89    1
    93    16    90    1
    94    17    91    1
    95    18    92    1
    96    18    93    1
    97    21    94    1
    98    23    95    1
    99    23    96    1
   100    23    97    1
   101    24    98    1
   102    24    99    1
   103    24   100    1
   104    25   101    1
   105    25   102    1
   106    25   103    1
   107    26   104    1
   108    30   105    1
   109    30   106    1
   110    31   107    1
   111    31   108    1
   112    37   109    1
   113    37   110    1
   114    38   111    1
   115    38   112    1
   116    40   113    1
   117    40   114    1
   118    41   115    1
   119    41   116    1
   120    43   117    1
   121    43   118    1
   122    44   119    1
   123    44   120    1
   124    46   121    1
   125    46   122    1
   126    48   123    1
   127    49   124    1
   128    50   125    1
   129    50   126    1
   130    52   127    1
   131    52   128    1
   132    54   129    1
   133    57   130    1
   134    57   131    1
   135    57   132    1
   136    62   133    1
   137    64   134    1
   138    65   135    1
   139    66   136    1
   140    68   137    1
   141    68   138    1
   142    68   139    1
   143    71   140    1
   144    74   141    1
   145    74   142    1
   146    74   143    1
   147    75   144    1
   148    75   145    1
   149    77   146    1
   150    14    87    1
   151    14    13    1
   152    21    22    1
   153    21    20    1
