@<TRIPOS>MOLECULE
*****
 150 157 0 0 0
SMALL
GASTEIGER

@<TRIPOS>ATOM
      1 C          12.2966   -5.3566   -0.2431 C.3     1  UNL1        0.0788
      2 O          12.2008   -6.6774   -0.8014 O.3     1  UNL1       -0.4947
      3 C          12.2284   -7.7620    0.0499 C.ar    1  UNL1        0.1285
      4 C          12.6166   -8.9628   -0.4633 C.ar    1  UNL1       -0.0116
      5 C          12.3397  -10.1873    0.2172 C.ar    1  UNL1       -0.0090
      6 C          12.9044  -11.3763   -0.3611 C.ar    1  UNL1        0.0065
      7 C          14.3426  -11.5742   -0.2961 C.ar    1  UNL1       -0.0007
      8 C          14.8638  -12.7694   -0.7320 C.ar    1  UNL1        0.0653
      9 C          16.2188  -12.9416   -0.6007 C.ar    1  UNL1        0.0405
     10 N          17.0081  -12.1145    0.1339 N.ar    1  UNL1       -0.2625
     11 C          16.4362  -11.0036    0.6340 C.ar    1  UNL1        0.0282
     12 C          15.1683  -10.6150    0.3029 C.ar    1  UNL1       -0.0351
     13 C          12.0967  -12.3482   -0.7998 C.ar    1  UNL1        0.0159
     14 N          12.6049  -13.5482   -1.2359 N.ar    1  UNL1       -0.3171
     15 C          11.6967  -14.5660   -1.7081 C.3     1  UNL1        0.0147
     16 C          13.9762  -13.8262   -1.2501 C.ar    1  UNL1        0.2603
     17 O          14.4595  -14.8859   -1.6306 O.2     1  UNL1       -0.2670
     18 C          11.8219  -10.3382    1.5244 C.ar    1  UNL1       -0.0116
     19 C          11.5174   -9.1740    2.2034 C.ar    1  UNL1        0.1285
     20 O          10.5187   -9.5835    3.3498 O.3     1  UNL1       -0.4947
     21 C           9.5613   -8.7461    4.2571 C.3     1  UNL1        0.0788
     22 C          11.6767   -7.8258    1.3410 C.ar    1  UNL1        0.0498
     23 C          10.6710   -6.7225    1.4147 C.3     1  UNL1        0.0311
     24 N           9.6146   -7.4276    0.8189 N.3     1  UNL1       -0.2955
     25 C           9.1996   -7.5216   -0.4921 C.3     1  UNL1        0.0120
     26 C           8.8542   -9.1806   -1.0874 C.3     1  UNL1        0.0118
     27 N           8.2174  -10.3770   -0.1485 N.3     1  UNL1       -0.2977
     28 C           6.6979  -10.7164    0.2755 C.3     1  UNL1        0.0224
     29 C           5.5072   -9.8958    0.6378 C.3     1  UNL1        0.0605
     30 O           5.5253   -8.6933   -0.0658 O.3     1  UNL1       -0.3762
     31 C           6.5322   -7.9985   -0.2047 C.3     1  UNL1        0.0711
     32 C           7.1184   -8.1268    1.0637 C.3     1  UNL1        0.0711
     33 O           7.0904   -9.1501    2.0049 O.3     1  UNL1       -0.3752
     34 C           6.3366   -8.8930    3.1092 C.3     1  UNL1        0.0711
     35 C           6.6917   -7.4848    3.4066 C.3     1  UNL1        0.0711
     36 O           6.8597   -6.0027    2.7143 O.3     1  UNL1       -0.3742
     37 C           8.0410   -5.3505    2.4570 C.3     1  UNL1        0.0818
     38 C           8.5640   -5.0584    3.7966 C.3     1  UNL1        0.1128
     39 O           7.8845   -5.8345    4.8483 O.3     1  UNL1       -0.4893
     40 C           6.3889   -6.0784    5.0504 C.ar    1  UNL1        0.1259
     41 C           6.4758   -7.1539    6.0162 C.ar    1  UNL1       -0.0113
     42 C           5.3449   -7.9681    6.1644 C.ar    1  UNL1       -0.0061
     43 C           5.2578   -8.8838    7.2664 C.ar    1  UNL1        0.0418
     44 C           4.8711  -10.2078    7.3082 C.ar    1  UNL1        0.0531
     45 C           4.5934  -11.0915    6.1390 C.3     1  UNL1       -0.0212
     46 N           4.7080  -10.6918    8.5957 N.ar    1  UNL1       -0.2520
     47 C           4.9703   -9.7341    9.4604 C.ar    1  UNL1        0.0655
     48 S           5.4010   -8.2157    8.8323 S.2     1  UNL1       -0.0752
     49 C           4.1730   -7.8681    5.3636 C.ar    1  UNL1       -0.0529
     50 C           4.0207   -6.9883    4.3009 C.ar    1  UNL1       -0.0530
     51 C           5.0168   -6.0165    4.0256 C.ar    1  UNL1        0.0113
     52 C           4.7699   -5.9493    2.1494 C.3     1  UNL1        0.0403
     53 N           4.3472   -7.3110    1.3700 N.am    1  UNL1       -0.3095
     54 C           3.6787   -7.4042    0.1167 C.2     1  UNL1        0.2339
     55 C           3.9724   -8.7453   -1.3238 C.3     1  UNL1        0.1047
     56 C           3.4162  -10.1439   -1.0368 C.3     1  UNL1        0.0018
     57 C           4.0154  -11.0247   -2.1579 C.3     1  UNL1        0.0731
     58 O           3.3924  -10.5669   -3.3500 O.3     1  UNL1       -0.3902
     59 C           5.4970  -10.7399   -2.4704 C.3     1  UNL1        0.0416
     60 N           5.4860   -9.2178   -2.2937 N.am    1  UNL1       -0.2858
     61 C           6.6302   -8.4524   -3.0137 C.2     1  UNL1        0.2371
     62 C           7.1032   -6.7728   -2.5946 C.3     1  UNL1        0.1045
     63 C           5.9688   -5.7863   -2.2513 C.3     1  UNL1       -0.0108
     64 C           5.7540   -5.1206   -3.5171 C.3     1  UNL1       -0.0579
     65 C           4.7458   -6.5887   -2.2139 C.3     1  UNL1       -0.0579
     66 C           6.0754   -4.8560   -0.9564 C.3     1  UNL1       -0.0579
     67 N           8.4006   -6.3044   -3.1905 N.am    1  UNL1       -0.3009
     68 C           9.5647   -5.6287   -2.6142 C.2     1  UNL1        0.2508
     69 C          10.5803   -5.2756   -3.5920 C.3     1  UNL1        0.1868
     70 F          11.8800   -5.7276   -3.3810 F       1  UNL1       -0.2320
     71 C          10.1204   -4.8466   -4.9097 C.3     1  UNL1       -0.0068
     72 C          10.4920   -3.8001   -3.8852 C.3     1  UNL1       -0.0068
     73 O           9.7858   -5.1390   -1.5739 O.2     1  UNL1       -0.2723
     74 O           7.4496   -9.0499   -3.7455 O.2     1  UNL1       -0.2735
     75 O           3.0672   -6.3926   -0.0691 O.2     1  UNL1       -0.2738
     76 C           9.0263  -10.1055    1.0658 C.3     1  UNL1        0.0118
     77 C           9.3210   -8.5453    1.5892 C.3     1  UNL1        0.0120
     78 H          12.4621   -4.6404   -1.0428 H       1  UNL1        0.0660
     79 H          13.0147   -5.3497    0.5715 H       1  UNL1        0.0660
     80 H          11.4094   -4.8618    0.1535 H       1  UNL1        0.0660
     81 H          13.2607   -8.9374   -1.3390 H       1  UNL1        0.0660
     82 H          16.7113  -13.7841   -1.0683 H       1  UNL1        0.0837
     83 H          17.0009  -10.4371    1.3666 H       1  UNL1        0.0830
     84 H          14.8255   -9.6257    0.5918 H       1  UNL1        0.0639
     85 H          11.0126  -12.2315   -0.8015 H       1  UNL1        0.0816
     86 H          11.9524  -14.7866   -2.7468 H       1  UNL1        0.0457
     87 H          11.8272  -15.4643   -1.0986 H       1  UNL1        0.0457
     88 H          10.6570  -14.2301   -1.6482 H       1  UNL1        0.0457
     89 H          11.4715  -11.3221    1.8699 H       1  UNL1        0.0660
     90 H          10.0260   -7.7769    4.4359 H       1  UNL1        0.0660
     91 H           8.9869   -8.0000    3.7722 H       1  UNL1        0.0660
     92 H           8.5236   -9.1965    4.3094 H       1  UNL1        0.0660
     93 H          10.6271   -6.4329    2.4579 H       1  UNL1        0.0478
     94 H          10.4114   -5.7962    0.9315 H       1  UNL1        0.0478
     95 H           8.3504   -6.8815   -0.1725 H       1  UNL1        0.0439
     96 H           9.1164   -6.6947   -1.0994 H       1  UNL1        0.0439
     97 H           9.8162   -9.4181   -1.5574 H       1  UNL1        0.0439
     98 H           8.1882   -9.3670   -1.8899 H       1  UNL1        0.0439
     99 H           6.1351  -11.0423   -0.5176 H       1  UNL1        0.0449
    100 H           6.6109  -11.5332    1.0002 H       1  UNL1        0.0449
    101 H           4.4701   -9.8981    0.9095 H       1  UNL1        0.0572
    102 H           5.5057   -9.8686    1.6298 H       1  UNL1        0.0572
    103 H           7.1011   -8.2454   -1.0652 H       1  UNL1        0.0583
    104 H           6.3767   -6.9416   -0.2531 H       1  UNL1        0.0583
    105 H           7.8610   -8.5368    0.4970 H       1  UNL1        0.0583
    106 H           7.3585   -7.1557    1.3129 H       1  UNL1        0.0583
    107 H           5.2313   -9.0270    2.9861 H       1  UNL1        0.0583
    108 H           6.4919   -9.7385    3.7613 H       1  UNL1        0.0583
    109 H           5.7870   -7.4323    2.9315 H       1  UNL1        0.0583
    110 H           7.6967   -7.3858    3.3905 H       1  UNL1        0.0583
    111 H           8.6159   -6.1145    2.0588 H       1  UNL1        0.0594
    112 H           8.0366   -4.6520    1.5899 H       1  UNL1        0.0594
    113 H           9.6548   -5.2760    3.7136 H       1  UNL1        0.0720
    114 H           8.4328   -4.0346    4.0751 H       1  UNL1        0.0720
    115 H           7.4142   -7.4551    6.5347 H       1  UNL1        0.0660
    116 H           5.2633  -11.9536    6.1537 H       1  UNL1        0.0293
    117 H           3.5533  -11.4301    6.1494 H       1  UNL1        0.0293
    118 H           4.7530  -10.5852    5.1800 H       1  UNL1        0.0293
    119 H           4.9237   -9.8637   10.5279 H       1  UNL1        0.0907
    120 H           3.3346   -8.5428    5.5374 H       1  UNL1        0.0624
    121 H           3.3951   -7.3821    3.4844 H       1  UNL1        0.0622
    122 H           4.5580   -4.9645    1.7557 H       1  UNL1        0.0513
    123 H           5.6711   -6.0085    1.5359 H       1  UNL1        0.0513
    124 H           5.2017   -7.8061    1.2550 H       1  UNL1        0.1491
    125 H           3.3341   -8.3826   -2.1133 H       1  UNL1        0.0597
    126 H           2.3469   -9.9542   -1.0069 H       1  UNL1        0.0313
    127 H           3.5353  -10.6706   -0.0907 H       1  UNL1        0.0313
    128 H           3.8021  -12.0719   -1.9263 H       1  UNL1        0.0610
    129 H           3.9308   -9.7720   -3.5778 H       1  UNL1        0.2098
    130 H           6.1765  -11.4419   -1.9527 H       1  UNL1        0.0490
    131 H           5.9222  -11.0108   -3.4412 H       1  UNL1        0.0490
    132 H           7.4816   -6.6770   -1.6429 H       1  UNL1        0.0600
    133 H           5.7404   -5.9438   -4.2557 H       1  UNL1        0.0236
    134 H           4.7797   -4.6538   -3.4237 H       1  UNL1        0.0236
    135 H           6.6195   -4.4871   -3.5989 H       1  UNL1        0.0236
    136 H           5.0065   -7.0575   -1.3228 H       1  UNL1        0.0236
    137 H           3.7358   -6.2313   -2.0751 H       1  UNL1        0.0236
    138 H           4.7134   -7.3258   -3.0136 H       1  UNL1        0.0236
    139 H           6.2830   -5.3093    0.0095 H       1  UNL1        0.0236
    140 H           6.9310   -4.1873   -0.9776 H       1  UNL1        0.0236
    141 H           5.1234   -4.3660   -0.7116 H       1  UNL1        0.0236
    142 H           8.4183   -6.5268   -4.1623 H       1  UNL1        0.1496
    143 H          10.7610   -5.2269   -5.6773 H       1  UNL1        0.0302
    144 H           9.0629   -5.0228   -5.0805 H       1  UNL1        0.0302
    145 H           9.7107   -3.2584   -3.3395 H       1  UNL1        0.0302
    146 H          11.4253   -3.2650   -3.9045 H       1  UNL1        0.0302
    147 H           9.9188  -10.4035    0.5799 H       1  UNL1        0.0439
    148 H           8.7252  -10.8117    1.8484 H       1  UNL1        0.0439
    149 H           9.8721   -8.2232    2.4013 H       1  UNL1        0.0439
    150 H           8.5884   -8.1135    2.1868 H       1  UNL1        0.0439
@<TRIPOS>BOND
     1     1     2    1
     2     2     3    1
     3     3     4   ar
     4     4     5   ar
     5     5     6    1
     6     6     7   ar
     7     7     8   ar
     8     8     9   ar
     9     9    10   ar
    10    10    11   ar
    11    11    12   ar
    12     7    12   ar
    13     6    13   ar
    14    13    14   ar
    15    14    15    1
    16    14    16   ar
    17     8    16   ar
    18    16    17    2
    19     5    18   ar
    20    18    19   ar
    21    19    20    1
    22    20    21    1
    23    19    22   ar
    24     3    22   ar
    25    22    23    1
    26    23    24    1
    27    24    25    1
    28    25    26    1
    29    26    27    1
    30    27    28    1
    31    28    29    1
    32    29    30    1
    33    30    31    1
    34    31    32    1
    35    32    33    1
    36    33    34    1
    37    34    35    1
    38    35    36    1
    39    36    37    1
    40    37    38    1
    41    38    39    1
    42    39    40    1
    43    40    41   ar
    44    41    42   ar
    45    42    43    1
    46    43    44   ar
    47    44    45    1
    48    44    46   ar
    49    46    47   ar
    50    47    48   ar
    51    43    48   ar
    52    42    49   ar
    53    49    50   ar
    54    50    51   ar
    55    40    51   ar
    56    51    52    1
    57    52    53    1
    58    53    54   am
    59    55    56    1
    60    56    57    1
    61    57    58    1
    62    57    59    1
    63    59    60    1
    64    55    60    1
    65    60    61   am
    66    63    64    1
    67    63    65    1
    68    63    66    1
    69    62    67    1
    70    67    68   am
    71    68    69    1
    72    69    70    1
    73    69    71    1
    74    71    72    1
    75    69    72    1
    76    68    73    2
    77    61    74    2
    78    54    75    2
    79    27    76    1
    80    76    77    1
    81    24    77    1
    82     1    78    1
    83     1    79    1
    84     1    80    1
    85     4    81    1
    86     9    82    1
    87    11    83    1
    88    12    84    1
    89    13    85    1
    90    15    86    1
    91    15    87    1
    92    15    88    1
    93    18    89    1
    94    21    90    1
    95    21    91    1
    96    21    92    1
    97    23    93    1
    98    23    94    1
    99    25    95    1
   100    25    96    1
   101    26    97    1
   102    26    98    1
   103    28    99    1
   104    28   100    1
   105    29   101    1
   106    29   102    1
   107    31   103    1
   108    31   104    1
   109    32   105    1
   110    32   106    1
   111    34   107    1
   112    34   108    1
   113    35   109    1
   114    35   110    1
   115    37   111    1
   116    37   112    1
   117    38   113    1
   118    38   114    1
   119    41   115    1
   120    45   116    1
   121    45   117    1
   122    45   118    1
   123    47   119    1
   124    49   120    1
   125    50   121    1
   126    52   122    1
   127    52   123    1
   128    53   124    1
   129    56   126    1
   130    56   127    1
   131    57   128    1
   132    58   129    1
   133    59   130    1
   134    59   131    1
   135    62   132    1
   136    64   133    1
   137    64   134    1
   138    64   135    1
   139    65   136    1
   140    65   137    1
   141    65   138    1
   142    66   139    1
   143    66   140    1
   144    66   141    1
   145    67   142    1
   146    71   143    1
   147    71   144    1
   148    72   145    1
   149    72   146    1
   150    76   147    1
   151    76   148    1
   152    77   149    1
   153    77   150    1
   154    62    63    1
   155    62    61    1
   156    55   125    1
   157    55    54    1
