@<TRIPOS>MOLECULE
*****
 93 96 0 0 0
SMALL
GASTEIGER

@<TRIPOS>ATOM
      1 O           4.4727   -0.8710    3.1209 O.2     1  UNL1       -0.2738
      2 C           3.4292   -1.1195    2.5070 C.2     1  UNL1        0.2339
      3 N           2.2544   -1.2736    3.3217 N.am    1  UNL1       -0.3095
      4 C           0.9043   -1.4640    2.8911 C.3     1  UNL1        0.0403
      5 C          -0.3457   -2.1777    3.2642 C.ar    1  UNL1        0.0113
      6 C          -0.8038   -3.1826    2.4220 C.ar    1  UNL1        0.1257
      7 O          -0.3743   -3.6015    1.2230 O.3     1  UNL1       -0.4916
      8 C           0.7427   -2.9351    0.8182 C.3     1  UNL1        0.0896
      9 C           0.4530   -1.3790    0.0689 C.3     1  UNL1       -0.0185
     10 C          -0.2982   -0.0964    0.8910 C.3     1  UNL1       -0.0454
     11 C           0.3929    1.0125    2.2061 C.3     1  UNL1       -0.0015
     12 C           1.8059    1.5742    2.1012 C.3     1  UNL1        0.1584
     13 O           1.7200    2.7075    1.2961 O.3     1  UNL1       -0.3545
     14 C           1.0138    2.3113    0.1265 C.3     1  UNL1        0.0394
     15 O           2.5543    1.7418    3.3145 O.3     1  UNL1       -0.3545
     16 C           1.8338    2.3507    4.3634 C.3     1  UNL1        0.0394
     17 C          -1.9687   -3.8073    2.6381 C.ar    1  UNL1       -0.0114
     18 C          -2.7357   -3.3479    3.6649 C.ar    1  UNL1       -0.0061
     19 C          -2.5648   -2.1028    4.2447 C.ar    1  UNL1       -0.0529
     20 C          -1.3654   -1.4893    4.0171 C.ar    1  UNL1       -0.0530
     21 C          -3.7200   -4.2454    4.1056 C.ar    1  UNL1        0.0418
     22 C          -5.0686   -4.0825    4.0498 C.ar    1  UNL1        0.0531
     23 C          -5.7401   -2.8711    3.5106 C.3     1  UNL1       -0.0212
     24 N          -5.7531   -5.1682    4.5498 N.ar    1  UNL1       -0.2520
     25 C          -4.8903   -6.0903    4.9357 C.ar    1  UNL1        0.0655
     26 S          -3.2362   -5.7468    4.7437 S.2     1  UNL1       -0.0752
     27 C           3.5366   -1.1723    0.8339 C.3     1  UNL1        0.1047
     28 N           4.7773   -1.0141    0.0836 N.am    1  UNL1       -0.2858
     29 C           5.3948    0.1745   -0.2689 C.2     1  UNL1        0.2371
     30 C           4.7996    1.5932    0.1546 C.3     1  UNL1        0.1045
     31 N           5.7149    2.2692    1.1055 N.am    1  UNL1       -0.3009
     32 C           6.2880    3.4950    0.9546 C.2     1  UNL1        0.2508
     33 C           7.2824    3.9641    1.9091 C.3     1  UNL1        0.1868
     34 F           7.0086    3.7510    3.2562 F       1  UNL1       -0.2320
     35 C           8.7095    3.9513    1.4463 C.3     1  UNL1       -0.0068
     36 C           8.0035    5.2669    1.6030 C.3     1  UNL1       -0.0068
     37 O           6.1265    4.3106   -0.0107 O.2     1  UNL1       -0.2723
     38 C           4.3894    2.4986   -1.0619 C.3     1  UNL1       -0.0108
     39 C           3.3863    1.8637   -2.0416 C.3     1  UNL1       -0.0579
     40 C           3.7267    3.8436   -0.5768 C.3     1  UNL1       -0.0579
     41 C           5.6390    2.6765   -1.9578 C.3     1  UNL1       -0.0579
     42 O           6.4491    0.0961   -0.9088 O.2     1  UNL1       -0.2735
     43 C           5.1690   -2.2966   -0.5954 C.3     1  UNL1        0.0416
     44 C           3.8993   -3.0531   -0.8496 C.3     1  UNL1        0.0731
     45 O           3.8607   -4.4735   -0.7478 O.3     1  UNL1       -0.3902
     46 C           3.1836   -2.5306    0.3338 C.3     1  UNL1        0.0018
     47 H           2.3587   -0.7248    4.1699 H       1  UNL1        0.1491
     48 H           0.2102   -0.7009    2.9243 H       1  UNL1        0.0513
     49 H           1.1379   -1.2149    1.8987 H       1  UNL1        0.0513
     50 H           1.4540   -2.9645    1.6649 H       1  UNL1        0.0696
     51 H           1.2368   -3.7073    0.2161 H       1  UNL1        0.0696
     52 H           1.3357   -0.9044   -0.3762 H       1  UNL1        0.0298
     53 H          -0.0953   -1.6461   -0.8400 H       1  UNL1        0.0298
     54 H          -0.7295    0.5323    0.1012 H       1  UNL1        0.0268
     55 H          -1.1926   -0.5723    1.2875 H       1  UNL1        0.0268
     56 H          -0.3876    1.7149    2.5093 H       1  UNL1        0.0314
     57 H           0.5473    0.6762    3.2310 H       1  UNL1        0.0314
     58 H           2.4112    0.8426    1.6188 H       1  UNL1        0.0909
     59 H           1.4257    1.3527   -0.2193 H       1  UNL1        0.0525
     60 H          -0.0318    2.2152    0.3735 H       1  UNL1        0.0525
     61 H           1.0096    3.0553   -0.6553 H       1  UNL1        0.0525
     62 H           1.3653    3.2488    3.9710 H       1  UNL1        0.0525
     63 H           1.0841    1.6613    4.7631 H       1  UNL1        0.0525
     64 H           2.5000    2.5812    5.1978 H       1  UNL1        0.0525
     65 H          -2.2114   -4.6670    2.0183 H       1  UNL1        0.0660
     66 H          -3.3230   -1.6496    4.8763 H       1  UNL1        0.0624
     67 H          -1.2925   -0.4329    4.3127 H       1  UNL1        0.0622
     68 H          -6.4028   -3.1380    2.6889 H       1  UNL1        0.0293
     69 H          -6.2806   -2.3700    4.3139 H       1  UNL1        0.0293
     70 H          -5.0335   -2.1323    3.1015 H       1  UNL1        0.0293
     71 H          -5.1774   -7.0336    5.3635 H       1  UNL1        0.0907
     72 H           2.9074   -0.3959    0.4113 H       1  UNL1        0.0597
     73 H           3.9157    1.4310    0.7407 H       1  UNL1        0.0600
     74 H           5.9145    1.7630    1.9707 H       1  UNL1        0.1496
     75 H           9.4711    3.6757    2.1527 H       1  UNL1        0.0302
     76 H           8.8733    3.5871    0.4322 H       1  UNL1        0.0302
     77 H           7.7306    5.8080    0.6957 H       1  UNL1        0.0302
     78 H           8.2224    5.9173    2.4321 H       1  UNL1        0.0302
     79 H           2.3905    1.7498   -1.6628 H       1  UNL1        0.0236
     80 H           3.2537    2.5211   -2.9091 H       1  UNL1        0.0236
     81 H           3.6975    0.8746   -2.3788 H       1  UNL1        0.0236
     82 H           4.1350    4.3403    0.3059 H       1  UNL1        0.0236
     83 H           3.6226    4.5746   -1.3765 H       1  UNL1        0.0236
     84 H           2.7356    3.7108   -0.2042 H       1  UNL1        0.0236
     85 H           6.5746    2.8660   -1.4328 H       1  UNL1        0.0236
     86 H           5.8550    1.7460   -2.4890 H       1  UNL1        0.0236
     87 H           5.4831    3.4647   -2.6927 H       1  UNL1        0.0236
     88 H           5.7597   -2.8748    0.1136 H       1  UNL1        0.0490
     89 H           5.6727   -2.1509   -1.5489 H       1  UNL1        0.0490
     90 H           3.3744   -2.7815   -1.7859 H       1  UNL1        0.0610
     91 H           3.8679   -4.7512    0.1880 H       1  UNL1        0.2098
     92 H           2.3040   -2.4132   -0.2463 H       1  UNL1        0.0313
     93 H           3.2189   -3.2369    1.1597 H       1  UNL1        0.0313
@<TRIPOS>BOND
     1     1     2    2
     2     2     3   am
     3     3     4    1
     4     4     5    1
     5     5     6   ar
     6     6     7    1
     7     7     8    1
     8     8     9    1
     9     9    10    1
    10    10    11    1
    11    11    12    1
    12    12    13    1
    13    13    14    1
    14    12    15    1
    15    15    16    1
    16     6    17   ar
    17    17    18   ar
    18    18    19   ar
    19    19    20   ar
    20     5    20   ar
    21    18    21    1
    22    21    22   ar
    23    22    23    1
    24    22    24   ar
    25    24    25   ar
    26    25    26   ar
    27    21    26   ar
    28    27    28    1
    29    28    29   am
    30    29    30    1
    31    30    31    1
    32    31    32   am
    33    32    33    1
    34    33    34    1
    35    33    35    1
    36    35    36    1
    37    33    36    1
    38    32    37    2
    39    30    38    1
    40    38    39    1
    41    38    40    1
    42    38    41    1
    43    29    42    2
    44    28    43    1
    45    43    44    1
    46    44    45    1
    47    44    46    1
    48    27    46    1
    49     3    47    1
    50     4    48    1
    51     4    49    1
    52     8    50    1
    53     8    51    1
    54     9    52    1
    55     9    53    1
    56    10    54    1
    57    10    55    1
    58    11    56    1
    59    11    57    1
    60    12    58    1
    61    14    59    1
    62    14    60    1
    63    14    61    1
    64    16    62    1
    65    16    63    1
    66    16    64    1
    67    17    65    1
    68    19    66    1
    69    20    67    1
    70    23    68    1
    71    23    69    1
    72    23    70    1
    73    25    71    1
    74    30    73    1
    75    31    74    1
    76    35    75    1
    77    35    76    1
    78    36    77    1
    79    36    78    1
    80    39    79    1
    81    39    80    1
    82    39    81    1
    83    40    82    1
    84    40    83    1
    85    40    84    1
    86    41    85    1
    87    41    86    1
    88    41    87    1
    89    43    88    1
    90    43    89    1
    91    44    90    1
    92    45    91    1
    93    46    92    1
    94    46    93    1
    95    27    72    1
    96    27     2    1
