@<TRIPOS>MOLECULE
*****
 70 73 0 0 0
SMALL
GASTEIGER

@<TRIPOS>ATOM
      1 O           4.7214    0.8680    1.1449 O.2     1  UNL1       -0.2738
      2 C           4.4678   -0.3329    0.9965 C.2     1  UNL1        0.2339
      3 N           5.5207   -1.2094    0.7351 N.am    1  UNL1       -0.3095
      4 C           5.6045   -2.7149    0.6789 C.3     1  UNL1        0.0403
      5 C           6.0595   -3.4672   -0.6311 C.ar    1  UNL1        0.0111
      6 C           5.4181   -3.7830   -1.8553 C.ar    1  UNL1        0.1221
      7 O           4.2804   -3.5368   -2.4980 O.3     1  UNL1       -0.5064
      8 C           5.9440   -4.2868   -3.0383 C.ar    1  UNL1       -0.0116
      9 C           7.1928   -4.6576   -3.1598 C.ar    1  UNL1       -0.0061
     10 C           7.9216   -4.4754   -1.9494 C.ar    1  UNL1       -0.0529
     11 C           7.3759   -3.8984   -0.7177 C.ar    1  UNL1       -0.0530
     12 C           7.5747   -5.0754   -4.5590 C.ar    1  UNL1        0.0418
     13 C           8.2274   -6.2122   -4.8774 C.ar    1  UNL1        0.0531
     14 C           8.0585   -7.3104   -3.9381 C.3     1  UNL1       -0.0212
     15 N           9.0210   -6.1344   -6.0111 N.ar    1  UNL1       -0.2520
     16 C           8.6632   -5.0658   -6.7054 C.ar    1  UNL1        0.0655
     17 S           7.0841   -4.5198   -6.2268 S.2     1  UNL1       -0.0752
     18 C           2.9771   -0.7613    1.0491 C.3     1  UNL1        0.1047
     19 N           2.8145   -2.0187    0.4525 N.am    1  UNL1       -0.2858
     20 C           3.2423   -2.2914   -0.7736 C.2     1  UNL1        0.2371
     21 C           4.1410   -1.2177   -1.9531 C.3     1  UNL1        0.1045
     22 N           5.7346   -1.1132   -2.2520 N.am    1  UNL1       -0.3009
     23 C           6.4039   -1.3556   -3.4878 C.2     1  UNL1        0.2508
     24 C           7.9557   -1.4189   -3.4994 C.3     1  UNL1        0.1868
     25 F           8.6349   -1.3885   -2.2928 F       1  UNL1       -0.2320
     26 C           8.4152   -2.5706   -4.2987 C.3     1  UNL1       -0.0068
     27 C           8.7074   -1.2977   -4.8954 C.3     1  UNL1       -0.0068
     28 O           5.8696   -1.6093   -4.5196 O.2     1  UNL1       -0.2723
     29 C           3.3267   -1.2185   -3.3722 C.3     1  UNL1       -0.0108
     30 C           1.8694   -0.9707   -3.0037 C.3     1  UNL1       -0.0579
     31 C           3.8216   -0.0042   -4.2005 C.3     1  UNL1       -0.0579
     32 C           3.1906   -2.5246   -4.3182 C.3     1  UNL1       -0.0579
     33 O           2.9722   -3.5004   -0.9224 O.2     1  UNL1       -0.2735
     34 C           2.2235   -3.0777    1.3381 C.3     1  UNL1        0.0416
     35 C           1.4786   -2.2282    2.3156 C.3     1  UNL1        0.0731
     36 O           0.2393   -1.8661    1.7058 O.3     1  UNL1       -0.3902
     37 C           2.4088   -1.0063    2.4398 C.3     1  UNL1        0.0018
     38 H           6.4029   -0.7046    0.7857 H       1  UNL1        0.1491
     39 H           6.2712   -2.9734    1.5164 H       1  UNL1        0.0513
     40 H           4.6830   -3.1200    1.0478 H       1  UNL1        0.0513
     41 H           3.3987   -3.5775   -2.1271 H       1  UNL1        0.2921
     42 H           5.3845   -4.1956   -3.9707 H       1  UNL1        0.0660
     43 H           8.9858   -4.6673   -1.9412 H       1  UNL1        0.0624
     44 H           8.0202   -3.7631    0.1514 H       1  UNL1        0.0622
     45 H           7.3474   -8.0049   -4.3805 H       1  UNL1        0.0293
     46 H           9.0202   -7.6822   -3.6305 H       1  UNL1        0.0293
     47 H           7.5438   -6.9723   -3.0231 H       1  UNL1        0.0293
     48 H           9.2389   -4.6545   -7.5365 H       1  UNL1        0.0907
     49 H           2.3736   -0.0827    0.4315 H       1  UNL1        0.0597
     50 H           4.0088   -0.2339   -1.4758 H       1  UNL1        0.0600
     51 H           6.3732   -1.2075   -1.4751 H       1  UNL1        0.1496
     52 H           9.2179   -3.2354   -4.0274 H       1  UNL1        0.0302
     53 H           7.5279   -2.9661   -4.7107 H       1  UNL1        0.0302
     54 H           8.1221   -1.2158   -5.8217 H       1  UNL1        0.0302
     55 H           9.7711   -1.3254   -5.1027 H       1  UNL1        0.0302
     56 H           1.7610   -0.0415   -2.4437 H       1  UNL1        0.0236
     57 H           1.2777   -0.9259   -3.9189 H       1  UNL1        0.0236
     58 H           1.4756   -1.7961   -2.4023 H       1  UNL1        0.0236
     59 H           4.8903    0.1116   -4.3653 H       1  UNL1        0.0236
     60 H           3.4057   -0.0418   -5.2057 H       1  UNL1        0.0236
     61 H           3.6109    0.9285   -3.6799 H       1  UNL1        0.0236
     62 H           4.1336   -2.9285   -4.6763 H       1  UNL1        0.0236
     63 H           2.6369   -3.3624   -3.8514 H       1  UNL1        0.0236
     64 H           2.6310   -2.3666   -5.2423 H       1  UNL1        0.0236
     65 H           3.0150   -3.6713    1.8133 H       1  UNL1        0.0490
     66 H           1.5857   -3.7896    0.7888 H       1  UNL1        0.0490
     67 H           1.2856   -2.7519    3.2563 H       1  UNL1        0.0610
     68 H           0.4213   -1.7213    0.7559 H       1  UNL1        0.2098
     69 H           1.8718   -0.1229    2.7793 H       1  UNL1        0.0313
     70 H           3.2377   -1.2444    3.1126 H       1  UNL1        0.0313
@<TRIPOS>BOND
     1     1     2    2
     2     2     3   am
     3     3     4    1
     4     4     5    1
     5     5     6   ar
     6     6     7    1
     7     6     8   ar
     8     8     9   ar
     9     9    10   ar
    10    10    11   ar
    11     5    11   ar
    12     9    12    1
    13    12    13   ar
    14    13    14    1
    15    13    15   ar
    16    15    16   ar
    17    16    17   ar
    18    12    17   ar
    19    18    19    1
    20    19    20   am
    21    20    21    1
    22    21    22    1
    23    22    23   am
    24    23    24    1
    25    24    25    1
    26    24    26    1
    27    26    27    1
    28    24    27    1
    29    23    28    2
    30    21    29    1
    31    29    30    1
    32    29    31    1
    33    29    32    1
    34    20    33    2
    35    19    34    1
    36    34    35    1
    37    35    36    1
    38    35    37    1
    39    18    37    1
    40     3    38    1
    41     4    39    1
    42     4    40    1
    43     7    41    1
    44     8    42    1
    45    10    43    1
    46    11    44    1
    47    14    45    1
    48    14    46    1
    49    14    47    1
    50    16    48    1
    51    21    50    1
    52    22    51    1
    53    26    52    1
    54    26    53    1
    55    27    54    1
    56    27    55    1
    57    30    56    1
    58    30    57    1
    59    30    58    1
    60    31    59    1
    61    31    60    1
    62    31    61    1
    63    32    62    1
    64    32    63    1
    65    32    64    1
    66    34    65    1
    67    34    66    1
    68    35    67    1
    69    36    68    1
    70    37    69    1
    71    37    70    1
    72    18    49    1
    73    18     2    1
