@<TRIPOS>MOLECULE
*****
 87 90 0 0 0
SMALL
GASTEIGER

@<TRIPOS>ATOM
      1 C           1.1258   -0.0195   -0.0253 C.3     1  UNL1        0.0788
      2 O           0.7099   -1.1119    0.7981 O.3     1  UNL1       -0.4947
      3 C           1.1612   -2.3996    0.6049 C.ar    1  UNL1        0.1285
      4 C           2.3416   -2.7161   -0.0312 C.ar    1  UNL1       -0.0116
      5 C           2.5766   -4.0425   -0.4463 C.ar    1  UNL1       -0.0090
      6 C           3.8234   -4.4207   -1.0670 C.ar    1  UNL1        0.0065
      7 C           4.7896   -4.3580   -0.1391 C.ar    1  UNL1        0.0159
      8 N           6.0704   -4.7002   -0.3962 N.ar    1  UNL1       -0.3171
      9 C           7.0397   -4.5525    0.6602 C.3     1  UNL1        0.0147
     10 C           6.5220   -5.1759   -1.6486 C.ar    1  UNL1        0.2603
     11 C           5.4587   -5.2684   -2.6889 C.ar    1  UNL1        0.0653
     12 C           4.1549   -4.9189   -2.3999 C.ar    1  UNL1       -0.0007
     13 C           3.2319   -4.9743   -3.4277 C.ar    1  UNL1       -0.0351
     14 C           3.6776   -5.0961   -4.7245 C.ar    1  UNL1        0.0282
     15 N           4.9238   -5.4929   -5.0255 N.ar    1  UNL1       -0.2625
     16 C           5.7767   -5.6437   -3.9796 C.ar    1  UNL1        0.0405
     17 O           7.6424   -5.4586   -1.8993 O.2     1  UNL1       -0.2670
     18 C           1.7393   -5.1005   -0.1186 C.ar    1  UNL1       -0.0116
     19 C           0.5776   -4.8661    0.6151 C.ar    1  UNL1        0.1285
     20 O          -0.3846   -5.8950    0.6718 O.3     1  UNL1       -0.4947
     21 C          -0.2565   -7.1530   -0.0824 C.3     1  UNL1        0.0788
     22 C           0.2453   -3.4590    0.9111 C.ar    1  UNL1        0.0498
     23 C          -1.1884   -2.9436    0.8279 C.3     1  UNL1        0.0311
     24 N          -1.4414   -3.0119   -0.5727 N.3     1  UNL1       -0.2955
     25 C          -0.9218   -1.9355   -1.3911 C.3     1  UNL1        0.0120
     26 C           0.2207   -2.6137   -2.5244 C.3     1  UNL1        0.0118
     27 N           0.2310   -4.1298   -3.0039 N.3     1  UNL1       -0.2977
     28 C          -0.1698   -4.5755   -4.3595 C.3     1  UNL1        0.0224
     29 C          -1.6099   -4.4285   -4.6575 C.3     1  UNL1        0.0605
     30 O          -2.1024   -3.1585   -4.4633 O.3     1  UNL1       -0.3762
     31 C          -2.3552   -2.8703   -3.0894 C.3     1  UNL1        0.0711
     32 C          -3.6348   -3.4705   -1.8392 C.3     1  UNL1        0.0717
     33 O          -3.8492   -4.9256   -1.7711 O.3     1  UNL1       -0.3664
     34 C          -4.1820   -5.4600   -3.0274 C.3     1  UNL1        0.1445
     35 C          -5.5329   -4.7968   -2.9352 C.2     1  UNL1        0.3336
     36 O          -5.7390   -3.7031   -3.8155 O.3     1  UNL1       -0.4573
     37 C          -4.8702   -2.9728   -4.8306 C.3     1  UNL1        0.1053
     38 C          -4.0888   -1.8425   -4.1949 C.3     1  UNL1       -0.0254
     39 C          -4.2594   -3.9884   -5.8238 C.3     1  UNL1       -0.0254
     40 C          -5.5627   -1.8967   -5.5983 C.3     1  UNL1       -0.0254
     41 O          -6.2237   -4.9217   -1.9457 O.2     1  UNL1       -0.2482
     42 C          -0.4746   -4.9861   -2.0584 C.3     1  UNL1        0.0118
     43 C          -1.4399   -4.4103   -1.0623 C.3     1  UNL1        0.0120
     44 H           0.6875    0.8824    0.4172 H       1  UNL1        0.0660
     45 H           0.7601   -0.0338   -1.0593 H       1  UNL1        0.0660
     46 H           2.2033    0.0742   -0.0637 H       1  UNL1        0.0660
     47 H           3.0371   -1.9450   -0.3378 H       1  UNL1        0.0660
     48 H           4.5511   -4.0254    0.8703 H       1  UNL1        0.0816
     49 H           7.4883   -5.5278    0.8462 H       1  UNL1        0.0457
     50 H           7.7970   -3.8402    0.3308 H       1  UNL1        0.0457
     51 H           6.5667   -4.1835    1.5785 H       1  UNL1        0.0457
     52 H           2.1922   -4.8586   -3.2352 H       1  UNL1        0.0639
     53 H           3.0302   -4.8222   -5.5536 H       1  UNL1        0.0830
     54 H           6.7505   -6.0501   -4.2218 H       1  UNL1        0.0837
     55 H           1.8459   -5.9946   -0.7568 H       1  UNL1        0.0660
     56 H          -0.0326   -7.1260   -1.1639 H       1  UNL1        0.0660
     57 H           0.5435   -7.7369    0.3519 H       1  UNL1        0.0660
     58 H          -1.2158   -7.6931   -0.0593 H       1  UNL1        0.0660
     59 H          -1.9427   -3.5108    1.3758 H       1  UNL1        0.0478
     60 H          -1.3933   -1.8890    1.0900 H       1  UNL1        0.0478
     61 H          -1.9467   -1.5445   -1.5913 H       1  UNL1        0.0439
     62 H          -0.7828   -0.8645   -1.1812 H       1  UNL1        0.0439
     63 H           1.0806   -2.6015   -1.8935 H       1  UNL1        0.0439
     64 H           0.4625   -1.9663   -3.3703 H       1  UNL1        0.0439
     65 H           0.3905   -4.1052   -5.1571 H       1  UNL1        0.0449
     66 H          -0.0823   -5.6819   -4.4666 H       1  UNL1        0.0449
     67 H          -1.8398   -4.7039   -5.6759 H       1  UNL1        0.0572
     68 H          -2.0857   -5.0986   -3.9755 H       1  UNL1        0.0572
     69 H          -1.5187   -3.2735   -2.7614 H       1  UNL1        0.0583
     70 H          -2.1898   -1.7725   -3.1408 H       1  UNL1        0.0583
     71 H          -3.4054   -3.3393   -0.7784 H       1  UNL1        0.0583
     72 H          -4.5257   -2.8479   -1.7250 H       1  UNL1        0.0583
     73 H          -3.7389   -4.8823   -3.7643 H       1  UNL1        0.0676
     74 H          -3.5504   -6.3681   -3.0978 H       1  UNL1        0.0676
     75 H          -4.0298   -2.5120   -3.4249 H       1  UNL1        0.0268
     76 H          -3.2214   -1.4685   -4.7729 H       1  UNL1        0.0268
     77 H          -4.3060   -1.0790   -3.4314 H       1  UNL1        0.0268
     78 H          -5.0628   -4.4334   -6.3978 H       1  UNL1        0.0268
     79 H          -3.5066   -3.5426   -6.4814 H       1  UNL1        0.0268
     80 H          -3.8154   -4.9138   -5.4483 H       1  UNL1        0.0268
     81 H          -6.3906   -2.3234   -6.1122 H       1  UNL1        0.0268
     82 H          -5.8985   -1.1016   -4.9064 H       1  UNL1        0.0268
     83 H          -4.8116   -1.4389   -6.2766 H       1  UNL1        0.0268
     84 H           0.3031   -5.2737   -1.4808 H       1  UNL1        0.0439
     85 H          -0.8769   -5.9476   -2.4496 H       1  UNL1        0.0439
     86 H          -2.0066   -5.0511   -0.3747 H       1  UNL1        0.0439
     87 H          -2.0868   -4.5747   -1.8673 H       1  UNL1        0.0439
@<TRIPOS>BOND
     1     1     2    1
     2     2     3    1
     3     3     4   ar
     4     4     5   ar
     5     5     6    1
     6     6     7   ar
     7     7     8   ar
     8     8     9    1
     9     8    10   ar
    10    10    11   ar
    11    11    12   ar
    12     6    12   ar
    13    12    13   ar
    14    13    14   ar
    15    14    15   ar
    16    15    16   ar
    17    11    16   ar
    18    10    17    2
    19     5    18   ar
    20    18    19   ar
    21    19    20    1
    22    20    21    1
    23     3    22   ar
    24    19    22   ar
    25    22    23    1
    26    23    24    1
    27    24    25    1
    28    25    26    1
    29    26    27    1
    30    27    28    1
    31    28    29    1
    32    29    30    1
    33    30    31    1
    34    31    32    1
    35    32    33    1
    36    33    34    1
    37    34    35    1
    38    35    36    1
    39    36    37    1
    40    37    38    1
    41    37    39    1
    42    37    40    1
    43    35    41    2
    44    27    42    1
    45    42    43    1
    46    24    43    1
    47     1    44    1
    48     1    45    1
    49     1    46    1
    50     4    47    1
    51     7    48    1
    52     9    49    1
    53     9    50    1
    54     9    51    1
    55    13    52    1
    56    14    53    1
    57    16    54    1
    58    18    55    1
    59    21    56    1
    60    21    57    1
    61    21    58    1
    62    23    59    1
    63    23    60    1
    64    25    61    1
    65    25    62    1
    66    26    63    1
    67    26    64    1
    68    28    65    1
    69    28    66    1
    70    29    67    1
    71    29    68    1
    72    31    69    1
    73    31    70    1
    74    32    71    1
    75    32    72    1
    76    34    73    1
    77    34    74    1
    78    38    75    1
    79    38    76    1
    80    38    77    1
    81    39    78    1
    82    39    79    1
    83    39    80    1
    84    40    81    1
    85    40    82    1
    86    40    83    1
    87    42    84    1
    88    42    85    1
    89    43    86    1
    90    43    87    1
