@<TRIPOS>MOLECULE
*****
 145 152 0 0 0
SMALL
GASTEIGER

@<TRIPOS>ATOM
      1 C          -5.7604   -8.4247   -2.4702 C.3     1  UNL1       -0.0212
      2 C          -5.1874   -9.0288   -3.6788 C.ar    1  UNL1        0.0531
      3 C          -3.8388   -8.9864   -4.0396 C.ar    1  UNL1        0.0418
      4 S          -3.7734   -9.4452   -5.7213 S.2     1  UNL1       -0.0752
      5 C          -5.3983  -10.0335   -5.6211 C.ar    1  UNL1        0.0655
      6 N          -6.0533   -9.6752   -4.5434 N.ar    1  UNL1       -0.2520
      7 C          -2.6460   -8.7566   -3.1429 C.ar    1  UNL1       -0.0061
      8 C          -1.4870   -7.9855   -3.4656 C.ar    1  UNL1       -0.0529
      9 C          -0.3401   -7.9459   -2.6042 C.ar    1  UNL1       -0.0530
     10 C          -0.3171   -8.7031   -1.4019 C.ar    1  UNL1        0.0113
     11 C           0.9794   -8.4570   -0.6256 C.3     1  UNL1        0.0403
     12 N           2.3289   -8.6410   -1.0132 N.am    1  UNL1       -0.3095
     13 C           3.4717   -7.9878   -1.2607 C.2     1  UNL1        0.2339
     14 C           4.5030   -9.0873   -1.6033 C.3     1  UNL1        0.1047
     15 C           5.8626   -8.5347   -1.9422 C.3     1  UNL1        0.0018
     16 C           6.3062   -9.5060   -3.0185 C.3     1  UNL1        0.0731
     17 O           6.8328  -10.6956   -2.4137 O.3     1  UNL1       -0.3902
     18 C           5.0260   -9.8164   -3.7974 C.3     1  UNL1        0.0416
     19 N           4.0018   -9.8633   -2.7845 N.am    1  UNL1       -0.2858
     20 C           2.8493  -10.6137   -3.0809 C.2     1  UNL1        0.2371
     21 C           1.7867  -10.9579   -1.9809 C.3     1  UNL1        0.1045
     22 C           2.2991  -11.5456   -0.5378 C.3     1  UNL1       -0.0108
     23 C           3.3160  -12.5327   -1.0151 C.3     1  UNL1       -0.0579
     24 C           2.9908  -10.8018    0.6681 C.3     1  UNL1       -0.0579
     25 C           1.1093  -12.1701    0.2279 C.3     1  UNL1       -0.0579
     26 N           0.6098  -11.7459   -2.3424 N.am    1  UNL1       -0.3009
     27 C          -0.5006  -11.2260   -2.8230 C.2     1  UNL1        0.2508
     28 C          -1.8076  -11.8982   -2.7097 C.3     1  UNL1        0.1868
     29 F          -2.5225  -11.9458   -1.5184 F       1  UNL1       -0.2320
     30 C          -2.4500  -11.7595   -4.0561 C.3     1  UNL1       -0.0068
     31 C          -2.3367  -13.0641   -3.3979 C.3     1  UNL1       -0.0068
     32 O          -0.3990  -10.1835   -3.5356 O.2     1  UNL1       -0.2723
     33 O           2.6125  -10.9614   -4.2434 O.2     1  UNL1       -0.2735
     34 O           3.6281   -6.7860   -1.1933 O.2     1  UNL1       -0.2738
     35 C          -1.4671   -9.6038   -1.0627 C.ar    1  UNL1        0.1259
     36 O          -1.5339  -10.5757   -0.0004 O.3     1  UNL1       -0.4893
     37 C          -2.8036  -11.0605    0.7911 C.3     1  UNL1        0.1128
     38 C          -4.0845  -10.1597    1.0875 C.3     1  UNL1        0.0817
     39 O          -4.5445   -9.0942    0.2373 O.3     1  UNL1       -0.3764
     40 C          -3.5444   -8.1599   -0.0784 C.3     1  UNL1        0.0478
     41 C          -2.9148   -7.0837    0.6802 C.3     1  UNL1       -0.0294
     42 C          -2.5449   -7.6455    2.0468 C.3     1  UNL1       -0.0498
     43 C          -1.4684   -8.6958    2.1047 C.3     1  UNL1       -0.0401
     44 C          -0.3127   -8.0748    1.4589 C.3     1  UNL1       -0.0010
     45 N           0.2183   -7.0183    2.1727 N.3     1  UNL1       -0.2999
     46 C           0.7911   -7.8857    3.1756 C.3     1  UNL1        0.0117
     47 C           2.2044   -8.3496    3.0024 C.3     1  UNL1        0.0120
     48 N           3.0558   -7.1625    2.9014 N.3     1  UNL1       -0.2955
     49 C           3.0217   -6.1468    4.0309 C.3     1  UNL1        0.0311
     50 C           1.7892   -5.3574    4.4900 C.ar    1  UNL1        0.0498
     51 C           1.5051   -4.0541    4.0324 C.ar    1  UNL1        0.1285
     52 O           2.3071   -3.2009    3.3006 O.3     1  UNL1       -0.4947
     53 C           3.6133   -3.5983    2.9074 C.3     1  UNL1        0.0788
     54 C           0.1971   -3.5514    4.2095 C.ar    1  UNL1       -0.0116
     55 C          -0.8784   -4.3783    4.5719 C.ar    1  UNL1       -0.0090
     56 C          -2.2720   -3.8869    4.4484 C.ar    1  UNL1        0.0065
     57 C          -2.8700   -3.2415    3.2626 C.ar    1  UNL1       -0.0007
     58 C          -4.1681   -2.7350    3.3160 C.ar    1  UNL1        0.0653
     59 C          -4.7122   -2.1783    2.1749 C.ar    1  UNL1        0.0405
     60 N          -4.1364   -2.2991    0.9560 N.ar    1  UNL1       -0.2625
     61 C          -2.9184   -2.8764    0.9185 C.ar    1  UNL1        0.0282
     62 C          -2.1959   -3.2059    2.0449 C.ar    1  UNL1       -0.0351
     63 C          -3.0626   -4.0180    5.5287 C.ar    1  UNL1        0.0159
     64 N          -4.3542   -3.5337    5.5990 N.ar    1  UNL1       -0.3171
     65 C          -5.1080   -3.6853    6.8264 C.3     1  UNL1        0.0147
     66 C          -4.9684   -2.8578    4.5453 C.ar    1  UNL1        0.2603
     67 O          -6.1102   -2.4089    4.5869 O.2     1  UNL1       -0.2670
     68 C          -0.5869   -5.6497    5.0543 C.ar    1  UNL1       -0.0116
     69 C           0.7736   -6.0345    5.2620 C.ar    1  UNL1        0.1285
     70 O           0.8865   -7.3283    5.7861 O.3     1  UNL1       -0.4947
     71 C           2.0062   -8.2129    5.6683 C.3     1  UNL1        0.0788
     72 C           2.6539   -6.5978    1.6062 C.3     1  UNL1        0.0120
     73 C           1.1921   -6.1162    1.5307 C.3     1  UNL1        0.0117
     74 C          -2.6075   -9.5516   -1.9450 C.ar    1  UNL1       -0.0113
     75 H          -6.1811   -7.4515   -2.7076 H       1  UNL1        0.0293
     76 H          -6.4215   -9.0724   -1.8973 H       1  UNL1        0.0293
     77 H          -4.9789   -8.1644   -1.8088 H       1  UNL1        0.0293
     78 H          -5.8786  -10.6183   -6.4011 H       1  UNL1        0.0907
     79 H          -1.3435   -7.6885   -4.5083 H       1  UNL1        0.0624
     80 H           0.6710   -7.7096   -3.0050 H       1  UNL1        0.0622
     81 H           1.0306   -7.4471   -0.2937 H       1  UNL1        0.0513
     82 H           0.9190   -9.3083    0.0319 H       1  UNL1        0.0513
     83 H           2.5974   -9.5501   -0.7764 H       1  UNL1        0.1491
     84 H           4.7500   -9.8070   -0.8305 H       1  UNL1        0.0597
     85 H           6.5131   -8.5491   -1.0549 H       1  UNL1        0.0313
     86 H           5.7699   -7.5064   -2.2910 H       1  UNL1        0.0313
     87 H           7.0873   -9.0741   -3.6386 H       1  UNL1        0.0610
     88 H           6.1089  -11.2050   -2.0093 H       1  UNL1        0.2098
     89 H           4.7558   -9.0075   -4.4800 H       1  UNL1        0.0490
     90 H           5.0601  -10.7794   -4.3095 H       1  UNL1        0.0490
     91 H           1.3482   -9.9887   -2.0470 H       1  UNL1        0.0600
     92 H           4.1398  -11.9815   -1.4737 H       1  UNL1        0.0236
     93 H           3.7224  -13.1005   -0.1906 H       1  UNL1        0.0236
     94 H           2.8584  -13.1661   -1.7753 H       1  UNL1        0.0236
     95 H           2.2108  -10.2052    1.0837 H       1  UNL1        0.0236
     96 H           3.3442  -11.4074    1.5082 H       1  UNL1        0.0236
     97 H           3.8049  -10.1124    0.5180 H       1  UNL1        0.0236
     98 H           0.4793  -11.3799    0.6498 H       1  UNL1        0.0236
     99 H           0.4833  -12.8171   -0.3794 H       1  UNL1        0.0236
    100 H           1.4539  -12.7468    1.0862 H       1  UNL1        0.0236
    101 H           0.6338  -12.7278   -2.5096 H       1  UNL1        0.1496
    102 H          -3.4447  -11.3751   -4.1023 H       1  UNL1        0.0302
    103 H          -1.7586  -11.3248   -4.7835 H       1  UNL1        0.0302
    104 H          -1.5380  -13.7540   -3.2506 H       1  UNL1        0.0302
    105 H          -3.3056  -13.3106   -2.9465 H       1  UNL1        0.0302
    106 H          -3.1092  -12.0580    0.4550 H       1  UNL1        0.0720
    107 H          -2.4497  -11.3348    1.8287 H       1  UNL1        0.0720
    108 H          -4.9367  -10.8204    1.2723 H       1  UNL1        0.0594
    109 H          -3.9682   -9.7112    2.0646 H       1  UNL1        0.0594
    110 H          -2.7405   -8.7872    0.0985 H       1  UNL1        0.0560
    111 H          -3.5083   -7.7731   -1.0957 H       1  UNL1        0.0560
    112 H          -2.0564   -6.7673    0.0420 H       1  UNL1        0.0287
    113 H          -3.6044   -6.2618    0.6583 H       1  UNL1        0.0287
    114 H          -2.2108   -6.8065    2.6311 H       1  UNL1        0.0266
    115 H          -3.4051   -8.0657    2.5293 H       1  UNL1        0.0266
    116 H          -1.3555   -9.2275    3.0518 H       1  UNL1        0.0278
    117 H          -1.4840   -9.5744    1.5369 H       1  UNL1        0.0278
    118 H           0.4045   -8.8816    1.4615 H       1  UNL1        0.0426
    119 H          -0.5977   -7.6627    0.5269 H       1  UNL1        0.0426
    120 H           0.7153   -7.0832    3.7630 H       1  UNL1        0.0439
    121 H           0.1536   -8.5752    3.7372 H       1  UNL1        0.0439
    122 H           2.2519   -8.9442    2.1255 H       1  UNL1        0.0439
    123 H           2.5678   -9.1799    3.6196 H       1  UNL1        0.0439
    124 H           3.4382   -6.4790    4.9782 H       1  UNL1        0.0478
    125 H           3.8744   -5.5589    3.7870 H       1  UNL1        0.0478
    126 H           4.2346   -3.8197    3.7790 H       1  UNL1        0.0660
    127 H           3.5634   -4.4125    2.1974 H       1  UNL1        0.0660
    128 H           4.1493   -2.8305    2.3528 H       1  UNL1        0.0660
    129 H          -0.0105   -2.5104    3.9720 H       1  UNL1        0.0660
    130 H          -5.6550   -1.6400    2.2029 H       1  UNL1        0.0837
    131 H          -2.5341   -3.1331   -0.0639 H       1  UNL1        0.0830
    132 H          -1.1588   -3.4998    1.9435 H       1  UNL1        0.0639
    133 H          -2.6924   -4.5071    6.4260 H       1  UNL1        0.0816
    134 H          -5.3781   -2.6913    7.1957 H       1  UNL1        0.0457
    135 H          -6.0222   -4.2468    6.6126 H       1  UNL1        0.0457
    136 H          -4.5262   -4.2110    7.5885 H       1  UNL1        0.0457
    137 H          -1.4033   -6.3905    5.0991 H       1  UNL1        0.0660
    138 H           2.7934   -8.0791    4.9470 H       1  UNL1        0.0660
    139 H           2.6732   -8.0923    6.4956 H       1  UNL1        0.0660
    140 H           1.6496   -9.2251    5.4094 H       1  UNL1        0.0660
    141 H           2.7753   -7.4410    0.9457 H       1  UNL1        0.0439
    142 H           3.3708   -5.8991    1.1924 H       1  UNL1        0.0439
    143 H           0.9086   -5.7659    0.5288 H       1  UNL1        0.0439
    144 H           1.1101   -5.1811    2.0592 H       1  UNL1        0.0439
    145 H          -3.4995  -10.1589   -1.6779 H       1  UNL1        0.0660
@<TRIPOS>BOND
     1     1     2    1
     2     2     3   ar
     3     3     4   ar
     4     4     5   ar
     5     5     6   ar
     6     2     6   ar
     7     3     7    1
     8     7     8   ar
     9     8     9   ar
    10     9    10   ar
    11    10    11    1
    12    11    12    1
    13    12    13   am
    14    14    15    1
    15    15    16    1
    16    16    17    1
    17    16    18    1
    18    18    19    1
    19    14    19    1
    20    19    20   am
    21    22    23    1
    22    22    24    1
    23    22    25    1
    24    21    26    1
    25    26    27   am
    26    27    28    1
    27    28    29    1
    28    28    30    1
    29    30    31    1
    30    28    31    1
    31    27    32    2
    32    20    33    2
    33    13    34    2
    34    10    35   ar
    35    35    36    1
    36    36    37    1
    37    37    38    1
    38    38    39    1
    39    39    40    1
    40    40    41    1
    41    41    42    1
    42    42    43    1
    43    43    44    1
    44    44    45    1
    45    45    46    1
    46    46    47    1
    47    47    48    1
    48    48    49    1
    49    49    50    1
    50    50    51   ar
    51    51    52    1
    52    52    53    1
    53    51    54   ar
    54    54    55   ar
    55    55    56    1
    56    56    57   ar
    57    57    58   ar
    58    58    59   ar
    59    59    60   ar
    60    60    61   ar
    61    61    62   ar
    62    57    62   ar
    63    56    63   ar
    64    63    64   ar
    65    64    65    1
    66    64    66   ar
    67    58    66   ar
    68    66    67    2
    69    55    68   ar
    70    68    69   ar
    71    50    69   ar
    72    69    70    1
    73    70    71    1
    74    48    72    1
    75    72    73    1
    76    45    73    1
    77    35    74   ar
    78     7    74   ar
    79     1    75    1
    80     1    76    1
    81     1    77    1
    82     5    78    1
    83     8    79    1
    84     9    80    1
    85    11    81    1
    86    11    82    1
    87    12    83    1
    88    15    85    1
    89    15    86    1
    90    16    87    1
    91    17    88    1
    92    18    89    1
    93    18    90    1
    94    21    91    1
    95    23    92    1
    96    23    93    1
    97    23    94    1
    98    24    95    1
    99    24    96    1
   100    24    97    1
   101    25    98    1
   102    25    99    1
   103    25   100    1
   104    26   101    1
   105    30   102    1
   106    30   103    1
   107    31   104    1
   108    31   105    1
   109    37   106    1
   110    37   107    1
   111    38   108    1
   112    38   109    1
   113    40   110    1
   114    40   111    1
   115    41   112    1
   116    41   113    1
   117    42   114    1
   118    42   115    1
   119    43   116    1
   120    43   117    1
   121    44   118    1
   122    44   119    1
   123    46   120    1
   124    46   121    1
   125    47   122    1
   126    47   123    1
   127    49   124    1
   128    49   125    1
   129    53   126    1
   130    53   127    1
   131    53   128    1
   132    54   129    1
   133    59   130    1
   134    61   131    1
   135    62   132    1
   136    63   133    1
   137    65   134    1
   138    65   135    1
   139    65   136    1
   140    68   137    1
   141    71   138    1
   142    71   139    1
   143    71   140    1
   144    72   141    1
   145    72   142    1
   146    73   143    1
   147    73   144    1
   148    74   145    1
   149    14    84    1
   150    14    13    1
   151    21    22    1
   152    21    20    1
