@<TRIPOS>MOLECULE
*****
 106 109 0 0 0
SMALL
GASTEIGER

@<TRIPOS>ATOM
      1 O           5.3853    1.9114   -2.4902 O.2     1  UNL1       -0.2738
      2 C           6.1417    2.8485   -2.4269 C.2     1  UNL1        0.2339
      3 C           5.5317    3.4768   -3.6389 C.3     1  UNL1        0.1047
      4 C           6.7148    4.2456   -4.0162 C.3     1  UNL1        0.0018
      5 C           5.9987    5.3088   -4.7426 C.3     1  UNL1        0.0731
      6 O           5.7106    4.7977   -6.0447 O.3     1  UNL1       -0.3902
      7 C           4.6905    5.5690   -3.9322 C.3     1  UNL1        0.0416
      8 N           4.2660    4.2601   -3.5078 N.am    1  UNL1       -0.2858
      9 C           2.9261    4.0307   -3.0060 C.2     1  UNL1        0.2371
     10 C           2.2932    2.6649   -2.4326 C.3     1  UNL1        0.1045
     11 C           3.3812    1.8559   -1.8462 C.3     1  UNL1       -0.0108
     12 C           3.6664    1.0434   -3.4192 C.3     1  UNL1       -0.0579
     13 C           4.3041    3.0137   -0.9178 C.3     1  UNL1       -0.0579
     14 C           3.1113    0.9420   -0.6367 C.3     1  UNL1       -0.0579
     15 N           1.5050    1.9296   -3.4521 N.am    1  UNL1       -0.3022
     16 C           0.3110    1.2768   -3.2507 C.2     1  UNL1        0.2337
     17 C          -0.2620    0.6275   -4.5073 C.3     1  UNL1        0.1329
     18 C           0.2697    1.2467   -5.6579 C.1     1  UNL1        0.0786
     19 N           0.9226    1.8954   -6.4763 N.1     1  UNL1       -0.1955
     20 C          -1.7296    0.2127   -4.6489 C.3     1  UNL1       -0.0241
     21 C          -0.6627   -0.8538   -4.6143 C.3     1  UNL1       -0.0241
     22 O          -0.2655    1.3109   -2.1752 O.2     1  UNL1       -0.2741
     23 O           2.1367    4.9866   -2.9428 O.2     1  UNL1       -0.2735
     24 N           7.2196    2.8587   -1.5177 N.am    1  UNL1       -0.3095
     25 C           7.7174    1.7589   -0.4497 C.3     1  UNL1        0.0403
     26 C           8.9908    0.8142   -1.0471 C.ar    1  UNL1        0.0113
     27 C           9.5356   -0.1267   -0.0978 C.ar    1  UNL1       -0.0530
     28 C          10.3676   -1.2080   -0.5375 C.ar    1  UNL1       -0.0529
     29 C          10.5105   -1.5680   -1.8906 C.ar    1  UNL1       -0.0061
     30 C          11.3715   -2.6371   -2.3480 C.ar    1  UNL1        0.0418
     31 C          12.4431   -2.4426   -3.1988 C.ar    1  UNL1        0.0531
     32 C          12.8530   -1.1329   -3.7743 C.3     1  UNL1       -0.0212
     33 N          13.1668   -3.5743   -3.4983 N.ar    1  UNL1       -0.2520
     34 C          12.6242   -4.6072   -2.8911 C.ar    1  UNL1        0.0655
     35 S          11.2318   -4.2829   -1.9314 S.2     1  UNL1       -0.0752
     36 C           9.9660   -0.7563   -2.8693 C.ar    1  UNL1       -0.0113
     37 C           9.2718    0.4218   -2.4967 C.ar    1  UNL1        0.1259
     38 O           8.4087    0.4263   -3.6071 O.3     1  UNL1       -0.4893
     39 C           7.1666    0.8626   -3.2396 C.3     1  UNL1        0.1128
     40 C           6.3603    0.3381   -1.6524 C.3     1  UNL1        0.0818
     41 O           6.7690   -0.5274   -0.6401 O.3     1  UNL1       -0.3742
     42 C           7.5293   -1.4440   -1.3545 C.3     1  UNL1        0.0711
     43 C           7.1865   -2.1971   -2.6596 C.3     1  UNL1        0.0711
     44 O           6.4733   -1.5625   -3.6948 O.3     1  UNL1       -0.3752
     45 C           5.0986   -1.3424   -3.3292 C.3     1  UNL1        0.0711
     46 C           4.3477   -1.3969   -1.6646 C.3     1  UNL1        0.0711
     47 O           4.7847   -1.9048   -0.3863 O.3     1  UNL1       -0.3752
     48 C           5.4602   -3.1478   -0.6108 C.3     1  UNL1        0.0711
     49 C           5.0943   -4.1628   -1.8406 C.3     1  UNL1        0.0714
     50 O           4.4754   -3.8033   -3.1523 O.3     1  UNL1       -0.3735
     51 C           3.1430   -3.2257   -3.1746 C.3     1  UNL1        0.0657
     52 C           2.3122   -3.5766   -1.9343 C.2     1  UNL1       -0.0658
     53 C           2.1800   -3.0741   -0.6715 C.2     1  UNL1       -0.1005
     54 H           5.2816    2.8049   -4.4951 H       1  UNL1        0.0597
     55 H           7.3913    3.5663   -4.5601 H       1  UNL1        0.0313
     56 H           7.2098    4.5891   -3.1043 H       1  UNL1        0.0313
     57 H           6.6927    6.1368   -4.7935 H       1  UNL1        0.0610
     58 H           5.0079    4.1191   -5.9795 H       1  UNL1        0.2098
     59 H           4.8970    6.1334   -3.0162 H       1  UNL1        0.0490
     60 H           3.9161    6.0102   -4.5455 H       1  UNL1        0.0490
     61 H           1.6397    2.8231   -1.5794 H       1  UNL1        0.0600
     62 H           3.6281    1.6983   -4.3081 H       1  UNL1        0.0236
     63 H           4.6194    0.8833   -3.8920 H       1  UNL1        0.0236
     64 H           3.0505    0.1362   -3.5566 H       1  UNL1        0.0236
     65 H           3.9509    3.5274   -0.0368 H       1  UNL1        0.0236
     66 H           5.1674    2.5092   -0.4735 H       1  UNL1        0.0236
     67 H           4.6665    3.8806   -1.4677 H       1  UNL1        0.0236
     68 H           2.9167    1.5191    0.2630 H       1  UNL1        0.0236
     69 H           2.2925    0.2557   -0.8045 H       1  UNL1        0.0236
     70 H           3.9962    0.3996   -0.2684 H       1  UNL1        0.0236
     71 H           1.9645    1.7732   -4.3482 H       1  UNL1        0.1495
     72 H          -2.4617    0.2497   -3.8495 H       1  UNL1        0.0286
     73 H          -2.2148    0.4654   -5.5910 H       1  UNL1        0.0286
     74 H          -0.4594   -1.4085   -5.5315 H       1  UNL1        0.0286
     75 H          -0.6446   -1.5382   -3.7704 H       1  UNL1        0.0286
     76 H           8.0830    3.0825   -1.9652 H       1  UNL1        0.1491
     77 H           8.0435    2.1776    0.4967 H       1  UNL1        0.0513
     78 H           6.8510    1.2679    0.0892 H       1  UNL1        0.0513
     79 H           9.0414   -0.3085    0.8832 H       1  UNL1        0.0622
     80 H          10.9031   -1.7935    0.2012 H       1  UNL1        0.0624
     81 H          13.8632   -0.8797   -3.4583 H       1  UNL1        0.0293
     82 H          12.7857   -1.1707   -4.8625 H       1  UNL1        0.0293
     83 H          12.2182   -0.3059   -3.4430 H       1  UNL1        0.0293
     84 H          13.0393   -5.6013   -2.9946 H       1  UNL1        0.0907
     85 H           9.8661   -1.1290   -3.9127 H       1  UNL1        0.0660
     86 H           7.5611    1.8603   -3.2712 H       1  UNL1        0.0720
     87 H           6.4829    1.0016   -4.1129 H       1  UNL1        0.0720
     88 H           5.4892    0.7852   -1.1914 H       1  UNL1        0.0594
     89 H           5.9250   -0.4737   -1.9794 H       1  UNL1        0.0594
     90 H           7.9637   -0.7430   -1.9185 H       1  UNL1        0.0583
     91 H           8.0356   -1.8920   -0.5313 H       1  UNL1        0.0583
     92 H           8.0591   -2.7718   -2.9138 H       1  UNL1        0.0583
     93 H           6.4950   -2.9450   -2.5615 H       1  UNL1        0.0583
     94 H           5.1375   -0.3200   -3.2106 H       1  UNL1        0.0583
     95 H           4.4988   -1.1320   -4.2352 H       1  UNL1        0.0583
     96 H           3.4064   -0.8552   -1.7052 H       1  UNL1        0.0583
     97 H           3.8864   -2.2859   -1.6765 H       1  UNL1        0.0583
     98 H           6.2140   -2.6034   -0.9900 H       1  UNL1        0.0583
     99 H           6.2243   -3.4793    0.1155 H       1  UNL1        0.0583
    100 H           6.0430   -4.6584   -2.1451 H       1  UNL1        0.0583
    101 H           4.4562   -4.8792   -1.3820 H       1  UNL1        0.0583
    102 H           3.3913   -2.2085   -3.1546 H       1  UNL1        0.0604
    103 H           2.6715   -2.7499   -4.0630 H       1  UNL1        0.0604
    104 H           1.8440   -4.5119   -2.1391 H       1  UNL1        0.0589
    105 H           1.6290   -3.5844    0.1012 H       1  UNL1        0.0532
    106 H           2.6438   -2.1956   -0.1951 H       1  UNL1        0.0532
@<TRIPOS>BOND
     1     1     2    2
     2     3     4    1
     3     4     5    1
     4     5     6    1
     5     5     7    1
     6     7     8    1
     7     3     8    1
     8     8     9   am
     9    11    12    1
    10    11    13    1
    11    11    14    1
    12    10    15    1
    13    15    16   am
    14    16    17    1
    15    17    18    1
    16    18    19    3
    17    17    20    1
    18    20    21    1
    19    17    21    1
    20    16    22    2
    21     9    23    2
    22     2    24   am
    23    24    25    1
    24    25    26    1
    25    26    27   ar
    26    27    28   ar
    27    28    29   ar
    28    29    30    1
    29    30    31   ar
    30    31    32    1
    31    31    33   ar
    32    33    34   ar
    33    34    35   ar
    34    30    35   ar
    35    29    36   ar
    36    36    37   ar
    37    26    37   ar
    38    37    38    1
    39    38    39    1
    40    39    40    1
    41    40    41    1
    42    41    42    1
    43    42    43    1
    44    43    44    1
    45    44    45    1
    46    45    46    1
    47    46    47    1
    48    47    48    1
    49    48    49    1
    50    49    50    1
    51    50    51    1
    52    51    52    1
    53    52    53    2
    54     4    55    1
    55     4    56    1
    56     5    57    1
    57     6    58    1
    58     7    59    1
    59     7    60    1
    60    10    61    1
    61    12    62    1
    62    12    63    1
    63    12    64    1
    64    13    65    1
    65    13    66    1
    66    13    67    1
    67    14    68    1
    68    14    69    1
    69    14    70    1
    70    15    71    1
    71    20    72    1
    72    20    73    1
    73    21    74    1
    74    21    75    1
    75    24    76    1
    76    25    77    1
    77    25    78    1
    78    27    79    1
    79    28    80    1
    80    32    81    1
    81    32    82    1
    82    32    83    1
    83    34    84    1
    84    36    85    1
    85    39    86    1
    86    39    87    1
    87    40    88    1
    88    40    89    1
    89    42    90    1
    90    42    91    1
    91    43    92    1
    92    43    93    1
    93    45    94    1
    94    45    95    1
    95    46    96    1
    96    46    97    1
    97    48    98    1
    98    48    99    1
    99    49   100    1
   100    49   101    1
   101    51   102    1
   102    51   103    1
   103    52   104    1
   104    53   105    1
   105    53   106    1
   106    10    11    1
   107    10     9    1
   108     3    54    1
   109     3     2    1
