@<TRIPOS>MOLECULE
*****
 81 84 0 0 0
SMALL
GASTEIGER

@<TRIPOS>ATOM
      1 C           0.8750    0.0057   -0.0415 C.3     1  UNL1        0.0788
      2 O           0.2977    0.3375   -1.3056 O.3     1  UNL1       -0.4947
      3 C           0.7895    1.4530   -1.9311 C.ar    1  UNL1        0.1285
      4 C           2.1276    1.8118   -1.8224 C.ar    1  UNL1       -0.0116
      5 C           2.6215    2.9300   -2.4817 C.ar    1  UNL1       -0.0090
      6 C           4.0266    3.3034   -2.3647 C.ar    1  UNL1        0.0065
      7 C           4.8932    2.4457   -2.8964 C.ar    1  UNL1        0.0159
      8 N           6.2548    2.6777   -2.8799 N.ar    1  UNL1       -0.3171
      9 C           7.1373    1.7201   -3.4641 C.3     1  UNL1        0.0147
     10 C           6.8170    3.7922   -2.3158 C.ar    1  UNL1        0.2603
     11 C           5.9439    4.7503   -1.7242 C.ar    1  UNL1        0.0653
     12 C           4.5860    4.5317   -1.8226 C.ar    1  UNL1       -0.0007
     13 C           3.8019    5.5723   -1.4554 C.ar    1  UNL1       -0.0351
     14 C           4.3836    6.6366   -0.7524 C.ar    1  UNL1        0.0282
     15 N           5.6764    6.7670   -0.4851 N.ar    1  UNL1       -0.2625
     16 C           6.4387    5.8915   -1.1200 C.ar    1  UNL1        0.0405
     17 O           8.0716    4.0358   -2.2772 O.2     1  UNL1       -0.2670
     18 C           1.8241    3.6328   -3.3613 C.ar    1  UNL1       -0.0116
     19 C           0.5478    3.1665   -3.6775 C.ar    1  UNL1        0.1285
     20 O          -0.2185    3.9029   -4.5637 O.3     1  UNL1       -0.4947
     21 C           0.2613    5.1652   -5.1013 C.3     1  UNL1        0.0788
     22 C          -0.0627    2.2049   -2.7772 C.ar    1  UNL1        0.0498
     23 C          -1.5946    2.1563   -2.4775 C.3     1  UNL1        0.0311
     24 N          -2.3385    3.3376   -1.9098 N.3     1  UNL1       -0.2950
     25 C          -2.0645    4.5452   -2.6895 C.3     1  UNL1        0.0151
     26 C          -0.7175    5.1566   -2.3583 C.3     1  UNL1        0.0275
     27 C          -2.1477    3.7030   -0.5210 C.3     1  UNL1        0.0151
     28 C          -0.7762    4.2819   -0.2647 C.3     1  UNL1        0.0275
     29 N          -0.5361    5.5623   -1.0666 N.am    1  UNL1       -0.2972
     30 C           0.1830    6.8241   -1.0541 C.2     1  UNL1        0.2414
     31 C           0.5364    7.3919    0.2793 C.3     1  UNL1        0.1239
     32 O           1.7349    7.3598    1.0262 O.3     1  UNL1       -0.3683
     33 C           2.3521    6.0948    0.8717 C.3     1  UNL1        0.0716
     34 C           1.8919    4.6914    1.2255 C.3     1  UNL1        0.0711
     35 O           0.6032    4.4267    1.7211 O.3     1  UNL1       -0.3752
     36 C          -0.1398    5.4970    2.3383 C.3     1  UNL1        0.0711
     37 C           0.1491    6.0827    3.6639 C.3     1  UNL1        0.0717
     38 O           1.4958    6.5517    3.8641 O.3     1  UNL1       -0.3664
     39 C           2.4702    5.5316    3.8166 C.3     1  UNL1        0.1444
     40 C           2.0366    4.1079    4.3302 C.2     1  UNL1        0.3308
     41 O           1.6223    3.0577    3.5724 O.3     1  UNL1       -0.4790
     42 O           1.9468    3.9609    5.5540 O.2     1  UNL1       -0.2484
     43 O           0.5370    7.4544   -2.0431 O.2     1  UNL1       -0.2731
     44 H           0.5134   -0.9853    0.2457 H       1  UNL1        0.0660
     45 H           0.5411    0.7338    0.7022 H       1  UNL1        0.0660
     46 H           1.9679   -0.0613   -0.0373 H       1  UNL1        0.0660
     47 H           2.8239    1.2393   -1.2253 H       1  UNL1        0.0660
     48 H           4.5510    1.5301   -3.3773 H       1  UNL1        0.0816
     49 H           7.7024    2.2295   -4.2481 H       1  UNL1        0.0457
     50 H           7.8156    1.3777   -2.6787 H       1  UNL1        0.0457
     51 H           6.5785    0.8818   -3.8778 H       1  UNL1        0.0457
     52 H           2.7391    5.4757   -1.6576 H       1  UNL1        0.0639
     53 H           3.8149    7.4156   -0.2542 H       1  UNL1        0.0830
     54 H           7.4754    6.1805   -1.1838 H       1  UNL1        0.0837
     55 H           2.1298    4.6459   -3.6324 H       1  UNL1        0.0660
     56 H           0.6005    5.9540   -4.4063 H       1  UNL1        0.0660
     57 H           1.1145    4.9732   -5.7352 H       1  UNL1        0.0660
     58 H          -0.5757    5.6297   -5.6340 H       1  UNL1        0.0660
     59 H          -2.0744    1.9602   -3.4370 H       1  UNL1        0.0478
     60 H          -1.8458    1.2902   -1.8470 H       1  UNL1        0.0478
     61 H          -2.1772    4.2606   -3.7287 H       1  UNL1        0.0442
     62 H          -2.7932    5.3352   -2.5085 H       1  UNL1        0.0442
     63 H           0.0668    4.4483   -2.2577 H       1  UNL1        0.0477
     64 H          -0.4281    5.9167   -3.0302 H       1  UNL1        0.0477
     65 H          -2.8116    4.5494   -0.2574 H       1  UNL1        0.0442
     66 H          -2.3802    2.9250    0.2173 H       1  UNL1        0.0442
     67 H           0.0099    3.5066   -0.3773 H       1  UNL1        0.0477
     68 H          -0.9743    4.4374    0.7415 H       1  UNL1        0.0477
     69 H          -0.1858    8.0740    0.7329 H       1  UNL1        0.0657
     70 H           0.1631    6.4528    0.5283 H       1  UNL1        0.0657
     71 H           2.2287    6.0155   -0.1633 H       1  UNL1        0.0583
     72 H           3.3936    6.1737    1.2102 H       1  UNL1        0.0583
     73 H           2.6094    3.9057    0.8893 H       1  UNL1        0.0583
     74 H           2.2575    4.4422    2.1513 H       1  UNL1        0.0583
     75 H           0.2058    6.4092    1.9976 H       1  UNL1        0.0583
     76 H          -1.1993    5.5424    2.0165 H       1  UNL1        0.0583
     77 H          -0.4852    6.9895    3.6637 H       1  UNL1        0.0583
     78 H          -0.1600    5.3390    4.3653 H       1  UNL1        0.0583
     79 H           2.8233    5.6932    2.8384 H       1  UNL1        0.0676
     80 H           3.5318    5.7392    4.0392 H       1  UNL1        0.0676
     81 H           1.3797    3.0343    2.6159 H       1  UNL1        0.2951
@<TRIPOS>BOND
     1     1     2    1
     2     2     3    1
     3     3     4   ar
     4     4     5   ar
     5     5     6    1
     6     6     7   ar
     7     7     8   ar
     8     8     9    1
     9     8    10   ar
    10    10    11   ar
    11    11    12   ar
    12     6    12   ar
    13    12    13   ar
    14    13    14   ar
    15    14    15   ar
    16    15    16   ar
    17    11    16   ar
    18    10    17    2
    19     5    18   ar
    20    18    19   ar
    21    19    20    1
    22    20    21    1
    23     3    22   ar
    24    19    22   ar
    25    22    23    1
    26    23    24    1
    27    24    25    1
    28    25    26    1
    29    24    27    1
    30    27    28    1
    31    28    29    1
    32    26    29    1
    33    29    30   am
    34    30    31    1
    35    31    32    1
    36    32    33    1
    37    33    34    1
    38    34    35    1
    39    35    36    1
    40    36    37    1
    41    37    38    1
    42    38    39    1
    43    39    40    1
    44    40    41    1
    45    40    42    2
    46    30    43    2
    47     1    44    1
    48     1    45    1
    49     1    46    1
    50     4    47    1
    51     7    48    1
    52     9    49    1
    53     9    50    1
    54     9    51    1
    55    13    52    1
    56    14    53    1
    57    16    54    1
    58    18    55    1
    59    21    56    1
    60    21    57    1
    61    21    58    1
    62    23    59    1
    63    23    60    1
    64    25    61    1
    65    25    62    1
    66    26    63    1
    67    26    64    1
    68    27    65    1
    69    27    66    1
    70    28    67    1
    71    28    68    1
    72    31    69    1
    73    31    70    1
    74    33    71    1
    75    33    72    1
    76    34    73    1
    77    34    74    1
    78    36    75    1
    79    36    76    1
    80    37    77    1
    81    37    78    1
    82    39    79    1
    83    39    80    1
    84    41    81    1
