@<TRIPOS>MOLECULE
*****
 145 152 0 0 0
SMALL
GASTEIGER

@<TRIPOS>ATOM
      1 C          -5.7593   -8.4238   -2.4706 C.3     1  UNL1       -0.0212
      2 C          -5.1947   -9.0292   -3.6831 C.ar    1  UNL1        0.0531
      3 C          -3.8460   -8.9900   -4.0435 C.ar    1  UNL1        0.0418
      4 S          -3.7820   -9.4485   -5.7258 S.2     1  UNL1       -0.0752
      5 C          -5.4079  -10.0354   -5.6248 C.ar    1  UNL1        0.0655
      6 N          -6.0625   -9.6756   -4.5469 N.ar    1  UNL1       -0.2520
      7 C          -2.6533   -8.7622   -3.1394 C.ar    1  UNL1       -0.0061
      8 C          -1.4889   -7.9818   -3.4629 C.ar    1  UNL1       -0.0529
      9 C          -0.3374   -7.9419   -2.5935 C.ar    1  UNL1       -0.0530
     10 C          -0.3187   -8.7023   -1.3827 C.ar    1  UNL1        0.0113
     11 C           0.9808   -8.4589   -0.6009 C.3     1  UNL1        0.0403
     12 N           2.3327   -8.6389   -0.9807 N.am    1  UNL1       -0.3095
     13 C           3.4718   -7.9834   -1.2312 C.2     1  UNL1        0.2339
     14 C           4.5009   -9.0837   -1.5964 C.3     1  UNL1        0.1047
     15 C           5.8608   -8.5336   -1.9388 C.3     1  UNL1        0.0018
     16 C           6.3051   -9.5048   -3.0161 C.3     1  UNL1        0.0731
     17 O           6.8321  -10.6949   -2.4129 O.3     1  UNL1       -0.3902
     18 C           5.0254   -9.8145   -3.7948 C.3     1  UNL1        0.0416
     19 N           4.0004   -9.8560   -2.7815 N.am    1  UNL1       -0.2858
     20 C           2.8498  -10.6068   -3.0762 C.2     1  UNL1        0.2371
     21 C           1.7846  -10.9336   -1.9761 C.3     1  UNL1        0.1045
     22 C           2.2870  -11.5115   -0.5073 C.3     1  UNL1       -0.0108
     23 C           3.3063  -12.5060   -0.9916 C.3     1  UNL1       -0.0579
     24 C           2.9661  -10.7455    0.7337 C.3     1  UNL1       -0.0579
     25 C           1.1036  -12.1589    0.2355 C.3     1  UNL1       -0.0579
     26 N           0.6145  -11.7235   -2.3552 N.am    1  UNL1       -0.3009
     27 C          -0.5010  -11.2158   -2.8219 C.2     1  UNL1        0.2508
     28 C          -1.7953  -11.8994   -2.7117 C.3     1  UNL1        0.1868
     29 F          -2.4866  -11.9685   -1.5085 F       1  UNL1       -0.2320
     30 C          -2.4449  -11.7562   -4.0573 C.3     1  UNL1       -0.0068
     31 C          -2.3326  -13.0599   -3.4013 C.3     1  UNL1       -0.0068
     32 O          -0.4269  -10.1559   -3.5137 O.2     1  UNL1       -0.2723
     33 O           2.6148  -10.9622   -4.2370 O.2     1  UNL1       -0.2735
     34 O           3.6251   -6.7825   -1.1495 O.2     1  UNL1       -0.2738
     35 C          -1.4748   -9.6163   -1.0482 C.ar    1  UNL1        0.1259
     36 O          -1.5412  -10.5942    0.0139 O.3     1  UNL1       -0.4893
     37 C          -2.8095  -11.0645    0.8049 C.3     1  UNL1        0.1128
     38 C          -4.0829  -10.1533    1.0944 C.3     1  UNL1        0.0817
     39 O          -4.5343   -9.0849    0.2429 O.3     1  UNL1       -0.3764
     40 C          -3.5301   -8.1556   -0.0762 C.3     1  UNL1        0.0478
     41 C          -2.8815   -7.0873    0.6780 C.3     1  UNL1       -0.0294
     42 C          -2.4993   -7.6515    2.0393 C.3     1  UNL1       -0.0498
     43 C          -1.4130   -8.7030    2.0921 C.3     1  UNL1       -0.0401
     44 C          -0.2199   -8.0933    1.5152 C.3     1  UNL1       -0.0010
     45 N           0.3155   -7.0535    2.2459 N.3     1  UNL1       -0.2999
     46 C           0.8332   -7.8862    3.3007 C.3     1  UNL1        0.0117
     47 C           2.2472   -8.2897    3.4543 C.3     1  UNL1        0.0120
     48 N           3.0759   -7.1638    3.1252 N.3     1  UNL1       -0.2956
     49 C           3.0012   -6.1755    4.2306 C.3     1  UNL1        0.0277
     50 C           1.7481   -5.3403    4.5665 C.ar    1  UNL1        0.0117
     51 C           1.4968   -4.0653    4.0597 C.ar    1  UNL1        0.1253
     52 O           2.3097   -3.2315    3.3266 O.3     1  UNL1       -0.4948
     53 C           3.6100   -3.6404    2.9211 C.3     1  UNL1        0.0788
     54 C           0.1848   -3.5730    4.2095 C.ar    1  UNL1       -0.0084
     55 C          -0.9132   -4.3919    4.5801 C.ar    1  UNL1        0.0292
     56 C          -2.2857   -3.8620    4.4528 C.ar    1  UNL1        0.0099
     57 C          -2.8743   -3.2317    3.2618 C.ar    1  UNL1       -0.0006
     58 C          -4.1727   -2.7302    3.3146 C.ar    1  UNL1        0.0653
     59 C          -4.7143   -2.1776    2.1722 C.ar    1  UNL1        0.0405
     60 N          -4.1363   -2.2984    0.9541 N.ar    1  UNL1       -0.2625
     61 C          -2.9183   -2.8762    0.9180 C.ar    1  UNL1        0.0282
     62 C          -2.1971   -3.2038    2.0451 C.ar    1  UNL1       -0.0351
     63 C          -3.0718   -3.9883    5.5356 C.ar    1  UNL1        0.0160
     64 N          -4.3619   -3.5154    5.6031 N.ar    1  UNL1       -0.3171
     65 C          -5.1130   -3.6812    6.8281 C.3     1  UNL1        0.0147
     66 C          -4.9748   -2.8504    4.5447 C.ar    1  UNL1        0.2603
     67 O          -6.1180   -2.4057    4.5828 O.2     1  UNL1       -0.2670
     68 C          -0.6757   -5.6702    5.0717 C.ar    1  UNL1        0.1284
     69 O          -1.7625   -6.5256    5.1652 O.3     1  UNL1       -0.4945
     70 C          -1.6183   -7.9219    5.3923 C.3     1  UNL1        0.0788
     71 C           0.6758   -5.9874    5.3166 C.ar    1  UNL1       -0.0115
     72 C           2.7111   -6.6909    1.7698 C.3     1  UNL1        0.0120
     73 C           1.2798   -6.1623    1.6128 C.3     1  UNL1        0.0117
     74 C          -2.6209   -9.5684   -1.9362 C.ar    1  UNL1       -0.0113
     75 H          -6.1809   -7.4504   -2.7055 H       1  UNL1        0.0293
     76 H          -6.4183   -9.0714   -1.8953 H       1  UNL1        0.0293
     77 H          -4.9724   -8.1646   -1.8131 H       1  UNL1        0.0293
     78 H          -5.8873  -10.6214   -6.4047 H       1  UNL1        0.0907
     79 H          -1.3414   -7.6921   -4.5119 H       1  UNL1        0.0624
     80 H           0.6790   -7.7160   -2.9992 H       1  UNL1        0.0622
     81 H           1.0381   -7.4439   -0.2834 H       1  UNL1        0.0513
     82 H           0.9179   -9.3069    0.0632 H       1  UNL1        0.0513
     83 H           2.6024   -9.5504   -0.7574 H       1  UNL1        0.1491
     84 H           4.7430   -9.8090   -0.8260 H       1  UNL1        0.0597
     85 H           6.5124   -8.5482   -1.0530 H       1  UNL1        0.0313
     86 H           5.7675   -7.5058   -2.2894 H       1  UNL1        0.0313
     87 H           7.0859   -9.0732   -3.6371 H       1  UNL1        0.0610
     88 H           6.1085  -11.2046   -2.0084 H       1  UNL1        0.2098
     89 H           4.7563   -9.0071   -4.4794 H       1  UNL1        0.0490
     90 H           5.0591  -10.7782   -4.3068 H       1  UNL1        0.0490
     91 H           1.3564   -9.9596   -2.0526 H       1  UNL1        0.0600
     92 H           4.1321  -11.9648   -1.4576 H       1  UNL1        0.0236
     93 H           3.7157  -13.0831   -0.1755 H       1  UNL1        0.0236
     94 H           2.8513  -13.1426   -1.7546 H       1  UNL1        0.0236
     95 H           2.2518  -10.0907    1.2216 H       1  UNL1        0.0236
     96 H           3.3515  -11.3921    1.5283 H       1  UNL1        0.0236
     97 H           3.8054  -10.0989    0.5447 H       1  UNL1        0.0236
     98 H           0.4716  -11.3770    0.6626 H       1  UNL1        0.0236
     99 H           0.4871  -12.8044   -0.3856 H       1  UNL1        0.0236
    100 H           1.4504  -12.7465    1.0854 H       1  UNL1        0.0236
    101 H           0.6282  -12.7091   -2.5026 H       1  UNL1        0.1496
    102 H          -3.4406  -11.3743   -4.1042 H       1  UNL1        0.0302
    103 H          -1.7557  -11.3230   -4.7891 H       1  UNL1        0.0302
    104 H          -1.5359  -13.7519   -3.2537 H       1  UNL1        0.0302
    105 H          -3.2995  -13.2987   -2.9405 H       1  UNL1        0.0302
    106 H          -3.1233  -12.0584    0.4645 H       1  UNL1        0.0720
    107 H          -2.4621  -11.3404    1.8443 H       1  UNL1        0.0720
    108 H          -4.9397  -10.8104    1.2705 H       1  UNL1        0.0594
    109 H          -3.9679   -9.7065    2.0729 H       1  UNL1        0.0594
    110 H          -2.7323   -8.7871    0.1069 H       1  UNL1        0.0560
    111 H          -3.4926   -7.7745   -1.0961 H       1  UNL1        0.0560
    112 H          -2.0193   -6.7787    0.0425 H       1  UNL1        0.0287
    113 H          -3.5751   -6.2667    0.6617 H       1  UNL1        0.0287
    114 H          -2.1750   -6.8030    2.6132 H       1  UNL1        0.0266
    115 H          -3.3618   -8.0704    2.5226 H       1  UNL1        0.0266
    116 H          -1.3031   -9.3065    2.9874 H       1  UNL1        0.0278
    117 H          -1.4527   -9.5541    1.4963 H       1  UNL1        0.0278
    118 H           0.5229   -8.8844    1.5426 H       1  UNL1        0.0426
    119 H          -0.5226   -7.6621    0.5948 H       1  UNL1        0.0426
    120 H           0.4807   -7.1695    3.9127 H       1  UNL1        0.0439
    121 H           0.2720   -8.7209    3.6994 H       1  UNL1        0.0439
    122 H           2.4407   -9.1493    2.8211 H       1  UNL1        0.0439
    123 H           2.3980   -8.6586    4.4704 H       1  UNL1        0.0439
    124 H           3.2743   -6.6807    5.1591 H       1  UNL1        0.0477
    125 H           3.8698   -5.5860    4.0353 H       1  UNL1        0.0477
    126 H           4.2399   -3.8653    3.7815 H       1  UNL1        0.0660
    127 H           3.5532   -4.4501    2.2093 H       1  UNL1        0.0660
    128 H           4.1426   -2.8641    2.3702 H       1  UNL1        0.0660
    129 H          -0.0122   -2.5329    3.9631 H       1  UNL1        0.0661
    130 H          -5.6570   -1.6404    2.2004 H       1  UNL1        0.0837
    131 H          -2.5332   -3.1331   -0.0639 H       1  UNL1        0.0830
    132 H          -1.1603   -3.5007    1.9457 H       1  UNL1        0.0639
    133 H          -2.7037   -4.4900    6.4279 H       1  UNL1        0.0816
    134 H          -5.3838   -2.6901    7.2019 H       1  UNL1        0.0457
    135 H          -6.0240   -4.2461    6.6112 H       1  UNL1        0.0457
    136 H          -4.5283   -4.2096    7.5871 H       1  UNL1        0.0457
    137 H          -1.4196   -8.4402    4.4793 H       1  UNL1        0.0660
    138 H          -0.8384   -8.1648    6.1067 H       1  UNL1        0.0660
    139 H          -2.5656   -8.3806    5.6947 H       1  UNL1        0.0660
    140 H           0.8742   -7.0090    5.6591 H       1  UNL1        0.0658
    141 H           2.8156   -7.5681    1.1390 H       1  UNL1        0.0439
    142 H           3.4438   -6.0177    1.3323 H       1  UNL1        0.0439
    143 H           1.0246   -5.8334    0.5923 H       1  UNL1        0.0439
    144 H           1.1705   -5.2064    2.0974 H       1  UNL1        0.0439
    145 H          -3.5133  -10.1846   -1.6728 H       1  UNL1        0.0660
@<TRIPOS>BOND
     1     1     2    1
     2     2     3   ar
     3     3     4   ar
     4     4     5   ar
     5     5     6   ar
     6     2     6   ar
     7     3     7    1
     8     7     8   ar
     9     8     9   ar
    10     9    10   ar
    11    10    11    1
    12    11    12    1
    13    12    13   am
    14    14    15    1
    15    15    16    1
    16    16    17    1
    17    16    18    1
    18    18    19    1
    19    14    19    1
    20    19    20   am
    21    22    23    1
    22    22    24    1
    23    22    25    1
    24    21    26    1
    25    26    27   am
    26    27    28    1
    27    28    29    1
    28    28    30    1
    29    30    31    1
    30    28    31    1
    31    27    32    2
    32    20    33    2
    33    13    34    2
    34    10    35   ar
    35    35    36    1
    36    36    37    1
    37    37    38    1
    38    38    39    1
    39    39    40    1
    40    40    41    1
    41    41    42    1
    42    42    43    1
    43    43    44    1
    44    44    45    1
    45    45    46    1
    46    46    47    1
    47    47    48    1
    48    48    49    1
    49    49    50    1
    50    50    51   ar
    51    51    52    1
    52    52    53    1
    53    51    54   ar
    54    54    55   ar
    55    55    56    1
    56    56    57   ar
    57    57    58   ar
    58    58    59   ar
    59    59    60   ar
    60    60    61   ar
    61    61    62   ar
    62    57    62   ar
    63    56    63   ar
    64    63    64   ar
    65    64    65    1
    66    64    66   ar
    67    58    66   ar
    68    66    67    2
    69    55    68   ar
    70    68    69    1
    71    69    70    1
    72    68    71   ar
    73    50    71   ar
    74    48    72    1
    75    72    73    1
    76    45    73    1
    77    35    74   ar
    78     7    74   ar
    79     1    75    1
    80     1    76    1
    81     1    77    1
    82     5    78    1
    83     8    79    1
    84     9    80    1
    85    11    81    1
    86    11    82    1
    87    12    83    1
    88    15    85    1
    89    15    86    1
    90    16    87    1
    91    17    88    1
    92    18    89    1
    93    18    90    1
    94    21    91    1
    95    23    92    1
    96    23    93    1
    97    23    94    1
    98    24    95    1
    99    24    96    1
   100    24    97    1
   101    25    98    1
   102    25    99    1
   103    25   100    1
   104    26   101    1
   105    30   102    1
   106    30   103    1
   107    31   104    1
   108    31   105    1
   109    37   106    1
   110    37   107    1
   111    38   108    1
   112    38   109    1
   113    40   110    1
   114    40   111    1
   115    41   112    1
   116    41   113    1
   117    42   114    1
   118    42   115    1
   119    43   116    1
   120    43   117    1
   121    44   118    1
   122    44   119    1
   123    46   120    1
   124    46   121    1
   125    47   122    1
   126    47   123    1
   127    49   124    1
   128    49   125    1
   129    53   126    1
   130    53   127    1
   131    53   128    1
   132    54   129    1
   133    59   130    1
   134    61   131    1
   135    62   132    1
   136    63   133    1
   137    65   134    1
   138    65   135    1
   139    65   136    1
   140    70   137    1
   141    70   138    1
   142    70   139    1
   143    71   140    1
   144    72   141    1
   145    72   142    1
   146    73   143    1
   147    73   144    1
   148    74   145    1
   149    14    84    1
   150    14    13    1
   151    21    22    1
   152    21    20    1
