@<TRIPOS>MOLECULE
*****
 141 148 0 0 0
SMALL
GASTEIGER

@<TRIPOS>ATOM
      1 C          -2.5576   -7.4706    5.7166 C.3     1  UNL1       -0.0212
      2 C          -1.4730   -8.3083    6.2700 C.ar    1  UNL1        0.0531
      3 C          -0.2414   -8.6584    5.7565 C.ar    1  UNL1        0.0418
      4 S           0.6467   -9.6566    6.8122 S.2     1  UNL1       -0.0752
      5 C          -0.6463   -9.5302    7.8949 C.ar    1  UNL1        0.0655
      6 N          -1.6850   -8.8190    7.5287 N.ar    1  UNL1       -0.2520
      7 C           0.4589   -8.3007    4.5853 C.ar    1  UNL1       -0.0061
      8 C           0.5430   -9.1749    3.5909 C.ar    1  UNL1       -0.0529
      9 C           1.2138   -8.6466    2.5412 C.ar    1  UNL1       -0.0530
     10 C           1.6885   -7.3719    2.2279 C.ar    1  UNL1        0.0113
     11 C           2.1277   -6.9228    0.9012 C.3     1  UNL1        0.0403
     12 N           3.5011   -7.2729    0.5537 N.am    1  UNL1       -0.3095
     13 C           3.6634   -7.4261   -0.7523 C.2     1  UNL1        0.2339
     14 C           4.3070   -8.3280   -1.8468 C.3     1  UNL1        0.1047
     15 C           6.2739   -8.2233   -2.2752 C.3     1  UNL1        0.0018
     16 C           6.6804   -9.6448   -3.5482 C.3     1  UNL1        0.0731
     17 O           7.3244  -10.9148   -2.7070 O.3     1  UNL1       -0.3902
     18 C           5.0171  -10.4106   -4.2382 C.3     1  UNL1        0.0416
     19 N           3.6050   -9.9828   -2.9970 N.am    1  UNL1       -0.2858
     20 C           2.4240  -10.8898   -3.1578 C.2     1  UNL1        0.2371
     21 C           1.3961  -11.0782   -1.8992 C.3     1  UNL1        0.1045
     22 C           2.0668  -11.6426   -0.4266 C.3     1  UNL1       -0.0108
     23 C           3.0806  -12.6080   -1.0517 C.3     1  UNL1       -0.0579
     24 C           2.7610  -10.8200    0.9791 C.3     1  UNL1       -0.0579
     25 C           0.9392  -12.2571    0.2945 C.3     1  UNL1       -0.0579
     26 N           0.0541  -11.3019   -2.2802 N.am    1  UNL1       -0.3009
     27 C          -0.9548  -10.3160   -2.2665 C.2     1  UNL1        0.2508
     28 C          -2.2573  -10.8215   -2.5269 C.3     1  UNL1        0.1868
     29 F          -3.1945  -10.2747   -1.6546 F       1  UNL1       -0.2320
     30 C          -2.5560  -11.0622   -3.9713 C.3     1  UNL1       -0.0068
     31 C          -2.5194  -12.2135   -2.9841 C.3     1  UNL1       -0.0068
     32 O          -0.9561   -9.1398   -1.9415 O.2     1  UNL1       -0.2723
     33 O           2.1405  -11.3180   -4.2784 O.2     1  UNL1       -0.2735
     34 O           2.5545   -7.2533   -1.1402 O.2     1  UNL1       -0.2738
     35 C           1.6096   -6.5249    3.2774 C.ar    1  UNL1        0.1259
     36 O           1.7603   -5.1918    3.0532 O.3     1  UNL1       -0.4893
     37 C           0.9079   -4.2056    3.7141 C.3     1  UNL1        0.1128
     38 C          -0.6496   -4.2069    3.9988 C.3     1  UNL1        0.0817
     39 O          -1.3461   -5.4037    4.2600 O.3     1  UNL1       -0.3764
     40 C          -1.2209   -6.3092    3.1872 C.3     1  UNL1        0.0478
     41 C          -1.8553   -6.1228    1.8946 C.3     1  UNL1       -0.0290
     42 C          -1.4225   -4.7871    1.2207 C.3     1  UNL1       -0.0427
     43 C           0.0180   -4.5212    0.8068 C.3     1  UNL1        0.0240
     44 C           0.1323   -5.4313   -0.3216 C.2     1  UNL1        0.2133
     45 N           0.8810   -5.0085   -1.3636 N.am    1  UNL1       -0.3100
     46 C           1.2649   -5.9021   -2.4090 C.3     1  UNL1        0.0485
     47 C           0.2410   -6.6098   -3.2257 C.3     1  UNL1        0.0189
     48 N           1.1409   -6.5639   -4.4072 N.3     1  UNL1       -0.2945
     49 C           1.7811   -7.8667   -4.6498 C.3     1  UNL1        0.0277
     50 C           2.8156   -8.1844   -3.6479 C.ar    1  UNL1        0.0117
     51 C           4.4677   -8.5101   -3.6406 C.ar    1  UNL1        0.1253
     52 O           5.1885   -7.7668   -4.5667 O.3     1  UNL1       -0.4948
     53 C           4.4205   -7.4794   -5.7411 C.3     1  UNL1        0.0788
     54 C           5.1252   -9.8132   -2.2962 C.ar    1  UNL1       -0.0084
     55 C           4.2789  -10.1958   -1.0156 C.ar    1  UNL1        0.0292
     56 C           5.3134  -10.1323    0.1761 C.ar    1  UNL1        0.0099
     57 C           6.0964   -9.0127    0.8313 C.ar    1  UNL1       -0.0006
     58 C           6.8013   -9.4101    1.9291 C.ar    1  UNL1        0.0653
     59 C           7.8258   -8.5874    2.3280 C.ar    1  UNL1        0.0405
     60 N           8.0722   -7.3157    1.8856 N.ar    1  UNL1       -0.2625
     61 C           7.2408   -6.8315    0.9880 C.ar    1  UNL1        0.0282
     62 C           6.3363   -7.6603    0.4171 C.ar    1  UNL1       -0.0351
     63 C           5.1931  -11.2707    0.8176 C.ar    1  UNL1        0.0160
     64 N           5.5218  -11.4502    2.0911 N.ar    1  UNL1       -0.3171
     65 C           4.9233  -12.6043    2.7170 C.3     1  UNL1        0.0147
     66 C           6.4789  -10.6590    2.6560 C.ar    1  UNL1        0.2603
     67 O           7.0462  -10.9454    3.6966 O.2     1  UNL1       -0.2670
     68 C           2.6875   -9.4769   -1.1253 C.ar    1  UNL1        0.1284
     69 O           1.7955   -9.2515   -0.0679 O.3     1  UNL1       -0.4945
     70 C           0.3809   -9.2764    0.1047 C.3     1  UNL1        0.0788
     71 C           2.0476   -8.6796   -2.4784 C.ar    1  UNL1       -0.0115
     72 C           2.0470   -5.6441   -3.6474 C.3     1  UNL1        0.0189
     73 O          -0.4258   -6.5102   -0.2342 O.2     1  UNL1       -0.2758
     74 C           1.0090   -7.0171    4.4355 C.ar    1  UNL1       -0.0113
     75 H          -3.4898   -8.0147    5.5984 H       1  UNL1        0.0293
     76 H          -2.6808   -6.5392    6.2726 H       1  UNL1        0.0293
     77 H          -2.4074   -7.1848    4.7102 H       1  UNL1        0.0293
     78 H          -0.5965  -10.0251    8.8432 H       1  UNL1        0.0907
     79 H           0.1680  -10.1968    3.5371 H       1  UNL1        0.0624
     80 H           1.2797   -9.5065    1.9757 H       1  UNL1        0.0622
     81 H           1.3767   -7.2255    0.1491 H       1  UNL1        0.0513
     82 H           2.1424   -5.8636    0.6866 H       1  UNL1        0.0513
     83 H           4.1889   -7.1355    1.2409 H       1  UNL1        0.1491
     84 H           4.8722   -8.5117   -0.9147 H       1  UNL1        0.0597
     85 H           6.9082   -8.6275   -1.4128 H       1  UNL1        0.0313
     86 H           6.1977   -7.1788   -2.4947 H       1  UNL1        0.0313
     87 H           7.4906   -9.1266   -4.0503 H       1  UNL1        0.0610
     88 H           6.6135  -11.4532   -2.2211 H       1  UNL1        0.2098
     89 H           4.7583   -9.8366   -5.1273 H       1  UNL1        0.0490
     90 H           5.0425  -11.4695   -4.4160 H       1  UNL1        0.0490
     91 H           1.0172  -10.1332   -1.6936 H       1  UNL1        0.0600
     92 H           3.9329  -12.1726   -1.5963 H       1  UNL1        0.0236
     93 H           3.5186  -13.2255   -0.2920 H       1  UNL1        0.0236
     94 H           2.6111  -13.1662   -1.8459 H       1  UNL1        0.0236
     95 H           2.5800   -9.9238    1.5131 H       1  UNL1        0.0236
     96 H           3.0236  -11.3694    1.8474 H       1  UNL1        0.0236
     97 H           3.4482  -10.0211    0.7454 H       1  UNL1        0.0236
     98 H           0.2648  -11.5082    0.6952 H       1  UNL1        0.0236
     99 H           0.4121  -12.8612   -0.4203 H       1  UNL1        0.0236
    100 H           1.3738  -12.7586    1.1443 H       1  UNL1        0.0236
    101 H          -0.0159  -12.2073   -2.6610 H       1  UNL1        0.1496
    102 H          -3.4735  -10.7140   -4.4103 H       1  UNL1        0.0302
    103 H          -1.7385  -10.9242   -4.6809 H       1  UNL1        0.0302
    104 H          -1.7346  -12.9590   -3.0253 H       1  UNL1        0.0302
    105 H          -3.4280  -12.6695   -2.6333 H       1  UNL1        0.0302
    106 H           1.3860   -4.1443    4.6693 H       1  UNL1        0.0720
    107 H           1.0743   -3.2680    3.1522 H       1  UNL1        0.0720
    108 H          -0.8736   -3.4750    4.7744 H       1  UNL1        0.0594
    109 H          -1.2421   -3.7245    3.2601 H       1  UNL1        0.0594
    110 H          -0.2676   -6.1450    2.8268 H       1  UNL1        0.0560
    111 H          -1.2864   -7.3705    3.4368 H       1  UNL1        0.0560
    112 H          -1.5649   -7.0497    1.3669 H       1  UNL1        0.0287
    113 H          -2.9057   -6.2085    2.0974 H       1  UNL1        0.0287
    114 H          -2.0011   -4.7175    0.3206 H       1  UNL1        0.0271
    115 H          -1.7549   -3.9292    1.7528 H       1  UNL1        0.0271
    116 H           0.3664   -3.5165    0.5753 H       1  UNL1        0.0358
    117 H           0.7351   -4.7960    1.5242 H       1  UNL1        0.0358
    118 H           1.4212   -4.1778   -1.2659 H       1  UNL1        0.1491
    119 H           2.2095   -6.1045   -2.0786 H       1  UNL1        0.0523
    120 H          -0.2429   -7.5374   -2.9467 H       1  UNL1        0.0445
    121 H          -0.6055   -5.9440   -3.2257 H       1  UNL1        0.0445
    122 H           1.0990   -8.7503   -4.7205 H       1  UNL1        0.0477
    123 H           2.2173   -7.9094   -5.6162 H       1  UNL1        0.0477
    124 H           3.8548   -8.3479   -6.1298 H       1  UNL1        0.0660
    125 H           3.7881   -6.6077   -5.5456 H       1  UNL1        0.0660
    126 H           5.1120   -7.2681   -6.5398 H       1  UNL1        0.0660
    127 H           6.0197  -10.1284   -1.8720 H       1  UNL1        0.0661
    128 H           8.5037   -8.9626    3.0726 H       1  UNL1        0.0837
    129 H           7.2465   -5.7992    0.6437 H       1  UNL1        0.0830
    130 H           5.9870   -7.1223   -0.4557 H       1  UNL1        0.0639
    131 H           4.4764  -11.9586    0.4706 H       1  UNL1        0.0816
    132 H           5.7125  -13.3401    2.7156 H       1  UNL1        0.0457
    133 H           4.5535  -12.3100    3.6962 H       1  UNL1        0.0457
    134 H           4.0698  -13.0042    2.1351 H       1  UNL1        0.0457
    135 H          -0.0211   -8.3292   -0.0236 H       1  UNL1        0.0660
    136 H          -0.1336  -10.0471   -0.3718 H       1  UNL1        0.0660
    137 H          -0.0285   -9.6037    1.0582 H       1  UNL1        0.0660
    138 H           1.0249   -8.4649   -2.3458 H       1  UNL1        0.0658
    139 H           2.0360   -4.5908   -3.8301 H       1  UNL1        0.0445
    140 H           3.1476   -5.8948   -3.5825 H       1  UNL1        0.0445
    141 H           0.5671   -6.2869    5.0845 H       1  UNL1        0.0660
@<TRIPOS>BOND
     1     1     2    1
     2     2     3   ar
     3     3     4   ar
     4     4     5   ar
     5     5     6   ar
     6     2     6   ar
     7     3     7    1
     8     7     8   ar
     9     8     9   ar
    10     9    10   ar
    11    10    11    1
    12    11    12    1
    13    12    13   am
    14    14    15    1
    15    15    16    1
    16    16    17    1
    17    16    18    1
    18    18    19    1
    19    14    19    1
    20    19    20   am
    21    22    23    1
    22    22    24    1
    23    22    25    1
    24    21    26    1
    25    26    27   am
    26    27    28    1
    27    28    29    1
    28    28    30    1
    29    30    31    1
    30    28    31    1
    31    27    32    2
    32    20    33    2
    33    13    34    2
    34    10    35   ar
    35    35    36    1
    36    36    37    1
    37    37    38    1
    38    38    39    1
    39    39    40    1
    40    40    41    1
    41    41    42    1
    42    42    43    1
    43    43    44    1
    44    44    45   am
    45    45    46    1
    46    46    47    1
    47    47    48    1
    48    48    49    1
    49    49    50    1
    50    50    51   ar
    51    51    52    1
    52    52    53    1
    53    51    54   ar
    54    54    55   ar
    55    55    56    1
    56    56    57   ar
    57    57    58   ar
    58    58    59   ar
    59    59    60   ar
    60    60    61   ar
    61    61    62   ar
    62    57    62   ar
    63    56    63   ar
    64    63    64   ar
    65    64    65    1
    66    64    66   ar
    67    58    66   ar
    68    66    67    2
    69    55    68   ar
    70    68    69    1
    71    69    70    1
    72    68    71   ar
    73    50    71   ar
    74    48    72    1
    75    46    72    1
    76    44    73    2
    77    35    74   ar
    78     7    74   ar
    79     1    75    1
    80     1    76    1
    81     1    77    1
    82     5    78    1
    83     8    79    1
    84     9    80    1
    85    11    81    1
    86    11    82    1
    87    12    83    1
    88    15    85    1
    89    15    86    1
    90    16    87    1
    91    17    88    1
    92    18    89    1
    93    18    90    1
    94    21    91    1
    95    23    92    1
    96    23    93    1
    97    23    94    1
    98    24    95    1
    99    24    96    1
   100    24    97    1
   101    25    98    1
   102    25    99    1
   103    25   100    1
   104    26   101    1
   105    30   102    1
   106    30   103    1
   107    31   104    1
   108    31   105    1
   109    37   106    1
   110    37   107    1
   111    38   108    1
   112    38   109    1
   113    40   110    1
   114    40   111    1
   115    41   112    1
   116    41   113    1
   117    42   114    1
   118    42   115    1
   119    43   116    1
   120    43   117    1
   121    45   118    1
   122    46   119    1
   123    47   120    1
   124    47   121    1
   125    49   122    1
   126    49   123    1
   127    53   124    1
   128    53   125    1
   129    53   126    1
   130    54   127    1
   131    59   128    1
   132    61   129    1
   133    62   130    1
   134    63   131    1
   135    65   132    1
   136    65   133    1
   137    65   134    1
   138    70   135    1
   139    70   136    1
   140    70   137    1
   141    71   138    1
   142    72   139    1
   143    72   140    1
   144    74   141    1
   145    21    22    1
   146    21    20    1
   147    14    84    1
   148    14    13    1
