@<TRIPOS>MOLECULE
*****
 52 53 0 0 0
SMALL
GASTEIGER

@<TRIPOS>ATOM
      1 BR         -1.5728    0.4787   -0.1334 Br      1  UNL1       -0.0464
      2 C           0.2600    0.0524    0.2005 C.ar    1  UNL1        0.0629
      3 C           1.0313    1.1808    0.4954 C.ar    1  UNL1       -0.0021
      4 C           2.4102    1.1292    0.8110 C.ar    1  UNL1        0.1258
      5 O           2.8974    2.3783    1.1075 O.3     1  UNL1       -0.4948
      6 C           4.2771    2.6835    1.1772 C.3     1  UNL1        0.0788
      7 C           3.1105   -0.0405    0.4962 C.ar    1  UNL1        0.0118
      8 C           4.6230   -0.0485    0.0958 C.3     1  UNL1        0.0277
      9 N           5.2099    0.6330   -1.1867 N.3     1  UNL1       -0.2951
     10 C           4.8237   -0.1336   -2.3563 C.3     1  UNL1        0.0152
     11 C           3.3231    0.0028   -2.5327 C.3     1  UNL1        0.0306
     12 N           2.8484    1.4093   -2.7868 N.am    1  UNL1       -0.2650
     13 C           1.8256    1.9350   -3.5604 C.2     1  UNL1        0.4034
     14 O           1.3212    1.2358   -4.6093 O.3     1  UNL1       -0.4445
     15 C           1.7364   -0.1070   -4.8776 C.3     1  UNL1        0.1068
     16 C           3.2729   -0.1032   -5.2147 C.3     1  UNL1       -0.0253
     17 C           1.0428   -0.9916   -3.7792 C.3     1  UNL1       -0.0253
     18 C           1.1425   -0.6036   -6.1776 C.3     1  UNL1       -0.0253
     19 O           1.3968    3.0983   -3.3763 O.2     1  UNL1       -0.2262
     20 C           3.4062    2.3000   -1.8121 C.3     1  UNL1        0.0306
     21 C           4.9028    2.0642   -1.6399 C.3     1  UNL1        0.0152
     22 C           2.3114   -1.2256    0.3095 C.ar    1  UNL1       -0.0110
     23 C           0.8870   -1.1962    0.1794 C.ar    1  UNL1        0.1345
     24 O           0.3378   -2.4349   -0.0532 O.3     1  UNL1       -0.4940
     25 C          -1.0814   -2.5489   -0.0406 C.3     1  UNL1        0.0788
     26 H           0.5732    2.1636    0.3475 H       1  UNL1        0.0666
     27 H           4.6750    2.5243    2.1694 H       1  UNL1        0.0660
     28 H           4.9248    2.0905    0.5730 H       1  UNL1        0.0660
     29 H           4.4369    3.6965    0.7888 H       1  UNL1        0.0660
     30 H           5.1900    0.2701    0.9752 H       1  UNL1        0.0477
     31 H           4.9214   -1.1062    0.0201 H       1  UNL1        0.0477
     32 H           5.3439    0.2708   -3.2359 H       1  UNL1        0.0442
     33 H           5.1275   -1.1818   -2.3113 H       1  UNL1        0.0442
     34 H           2.7687   -0.3485   -1.6922 H       1  UNL1        0.0478
     35 H           3.0974   -0.7898   -3.2099 H       1  UNL1        0.0478
     36 H           3.8749    0.5712   -4.6095 H       1  UNL1        0.0268
     37 H           3.7081   -1.1071   -5.1639 H       1  UNL1        0.0268
     38 H           3.4997    0.3532   -6.1798 H       1  UNL1        0.0268
     39 H          -0.0448   -1.0091   -3.9056 H       1  UNL1        0.0268
     40 H           1.4261   -2.0159   -3.7695 H       1  UNL1        0.0268
     41 H           1.0934   -0.5906   -2.7612 H       1  UNL1        0.0268
     42 H           0.0549   -0.5554   -6.1572 H       1  UNL1        0.0268
     43 H           1.4953    0.0048   -7.0133 H       1  UNL1        0.0268
     44 H           1.4675   -1.6406   -6.3273 H       1  UNL1        0.0268
     45 H           2.9650    1.8674   -0.9757 H       1  UNL1        0.0478
     46 H           3.0111    3.3194   -1.7246 H       1  UNL1        0.0478
     47 H           5.4328    2.8135   -1.0486 H       1  UNL1        0.0442
     48 H           5.3400    2.2721   -2.6336 H       1  UNL1        0.0442
     49 H           2.8066   -2.1792    0.1079 H       1  UNL1        0.0659
     50 H          -1.5033   -2.1178    0.8736 H       1  UNL1        0.0660
     51 H          -1.5004   -2.1133   -0.9533 H       1  UNL1        0.0660
     52 H          -1.3705   -3.6037   -0.0472 H       1  UNL1        0.0660
@<TRIPOS>BOND
     1     1     2    1
     2     2     3   ar
     3     3     4   ar
     4     4     5    1
     5     5     6    1
     6     4     7   ar
     7     7     8    1
     8     8     9    1
     9     9    10    1
    10    10    11    1
    11    11    12    1
    12    12    13   am
    13    13    14    1
    14    14    15    1
    15    15    16    1
    16    15    17    1
    17    15    18    1
    18    13    19    2
    19    12    20    1
    20    20    21    1
    21     9    21    1
    22     7    22   ar
    23    22    23   ar
    24     2    23   ar
    25    23    24    1
    26    24    25    1
    27     3    26    1
    28     6    27    1
    29     6    28    1
    30     6    29    1
    31     8    30    1
    32     8    31    1
    33    10    32    1
    34    10    33    1
    35    11    34    1
    36    11    35    1
    37    16    36    1
    38    16    37    1
    39    16    38    1
    40    17    39    1
    41    17    40    1
    42    17    41    1
    43    18    42    1
    44    18    43    1
    45    18    44    1
    46    20    45    1
    47    20    46    1
    48    21    47    1
    49    21    48    1
    50    22    49    1
    51    25    50    1
    52    25    51    1
    53    25    52    1
