@<TRIPOS>MOLECULE
*****
 92 95 0 0 0
SMALL
GASTEIGER

@<TRIPOS>ATOM
      1 O          -3.5384   -1.1688   -2.9568 O.2     1  UNL1       -0.2738
      2 C          -2.7208   -0.8432   -3.8148 C.2     1  UNL1        0.2339
      3 C          -2.5551    0.6238   -4.2213 C.3     1  UNL1        0.1047
      4 C          -3.5364    0.9162   -5.3471 C.3     1  UNL1        0.0018
      5 C          -2.9773    2.1789   -5.9719 C.3     1  UNL1        0.0731
      6 O          -3.3613    3.3247   -5.2142 O.3     1  UNL1       -0.3902
      7 C          -1.4665    1.9537   -5.8951 C.3     1  UNL1        0.0416
      8 N          -1.2658    1.1215   -4.6864 N.am    1  UNL1       -0.2858
      9 C          -0.1603    1.4003   -3.8921 C.2     1  UNL1        0.2371
     10 C           0.1341    0.6903   -2.4699 C.3     1  UNL1        0.1045
     11 C           1.3386   -0.2425   -2.5452 C.3     1  UNL1       -0.0108
     12 C           2.5733    0.3714   -3.1880 C.3     1  UNL1       -0.0579
     13 C           1.6672   -1.1202   -1.3178 C.3     1  UNL1       -0.0579
     14 C           0.9439   -1.2518   -3.4841 C.3     1  UNL1       -0.0579
     15 N          -0.9790    0.0333   -1.7696 N.am    1  UNL1       -0.3022
     16 C          -1.3655    0.4012   -0.5025 C.2     1  UNL1        0.2337
     17 C          -2.8023    0.1193   -0.1787 C.3     1  UNL1        0.1329
     18 C          -3.6221    1.0177   -0.9212 C.1     1  UNL1        0.0786
     19 N          -4.1955    1.8212   -1.5900 N.1     1  UNL1       -0.1955
     20 C          -3.3302   -0.1625    1.2253 C.3     1  UNL1       -0.0241
     21 C          -3.3314   -1.2628    0.2040 C.3     1  UNL1       -0.0241
     22 O          -0.6699    1.1120    0.2092 O.2     1  UNL1       -0.2741
     23 O           0.7115    2.1284   -4.3891 O.2     1  UNL1       -0.2735
     24 N          -1.9151   -1.7928   -4.3540 N.am    1  UNL1       -0.3095
     25 C          -1.8654   -3.1605   -3.7406 C.3     1  UNL1        0.0403
     26 C          -1.9118   -4.3209   -4.7167 C.ar    1  UNL1        0.0113
     27 C          -2.7161   -4.0235   -5.8441 C.ar    1  UNL1       -0.0530
     28 C          -2.7700   -4.8624   -6.9357 C.ar    1  UNL1       -0.0529
     29 C          -1.8830   -5.9271   -7.0341 C.ar    1  UNL1       -0.0061
     30 C          -2.0054   -6.8392   -8.1512 C.ar    1  UNL1        0.0418
     31 C          -2.2071   -8.1998   -8.0426 C.ar    1  UNL1        0.0531
     32 C          -2.2028   -8.9735   -6.7735 C.3     1  UNL1       -0.0212
     33 N          -2.5048   -8.8392   -9.2289 N.ar    1  UNL1       -0.2520
     34 C          -2.4879   -7.9663  -10.2125 C.ar    1  UNL1        0.0655
     35 S          -2.0996   -6.3498   -9.7880 S.2     1  UNL1       -0.0752
     36 C          -1.0068   -6.2211   -5.9694 C.ar    1  UNL1       -0.0113
     37 C          -1.0478   -5.4825   -4.7597 C.ar    1  UNL1        0.1259
     38 O           0.0374   -5.8583   -3.9785 O.3     1  UNL1       -0.4893
     39 C           0.6529   -4.9188   -3.1427 C.3     1  UNL1        0.1128
     40 C           1.2263   -3.8533   -3.9716 C.3     1  UNL1        0.0818
     41 O           0.3955   -3.0643   -4.8609 O.3     1  UNL1       -0.3742
     42 C           0.2021   -3.3758   -6.2238 C.3     1  UNL1        0.0712
     43 C           1.2669   -3.5369   -7.2517 C.3     1  UNL1        0.0714
     44 O           2.5415   -3.8143   -6.7002 O.3     1  UNL1       -0.3735
     45 C           2.9447   -2.7389   -5.8609 C.3     1  UNL1        0.0657
     46 C           3.0323   -1.3737   -6.4258 C.2     1  UNL1       -0.0658
     47 C           2.1529   -0.3578   -6.2999 C.2     1  UNL1       -0.1005
     48 H          -2.7764    1.2421   -3.3591 H       1  UNL1        0.0597
     49 H          -4.5530    1.0321   -4.9590 H       1  UNL1        0.0313
     50 H          -3.5232    0.0930   -6.0703 H       1  UNL1        0.0313
     51 H          -3.3366    2.3259   -6.9937 H       1  UNL1        0.0610
     52 H          -2.9635    3.2751   -4.3256 H       1  UNL1        0.2098
     53 H          -1.1029    1.3717   -6.7475 H       1  UNL1        0.0490
     54 H          -0.9278    2.9082   -5.8488 H       1  UNL1        0.0490
     55 H           0.4991    1.4922   -1.8346 H       1  UNL1        0.0600
     56 H           2.9038    1.2106   -2.6000 H       1  UNL1        0.0236
     57 H           3.3715   -0.3602   -3.3801 H       1  UNL1        0.0236
     58 H           2.3450    0.7412   -4.1835 H       1  UNL1        0.0236
     59 H           0.8563   -1.8283   -1.0567 H       1  UNL1        0.0236
     60 H           2.5280   -1.7786   -1.5241 H       1  UNL1        0.0236
     61 H           1.8803   -0.4884   -0.4707 H       1  UNL1        0.0236
     62 H           0.1910   -1.8489   -2.9950 H       1  UNL1        0.0236
     63 H           0.5331   -0.9646   -4.4206 H       1  UNL1        0.0236
     64 H           1.8971   -1.7210   -3.6827 H       1  UNL1        0.0236
     65 H          -1.4793   -0.7355   -2.1911 H       1  UNL1        0.1495
     66 H          -2.6926   -0.2747    2.0928 H       1  UNL1        0.0286
     67 H          -4.2776    0.3097    1.4846 H       1  UNL1        0.0286
     68 H          -4.2900   -1.5856   -0.1987 H       1  UNL1        0.0286
     69 H          -2.6786   -2.1086    0.3976 H       1  UNL1        0.0286
     70 H          -1.1365   -1.4738   -4.9305 H       1  UNL1        0.1491
     71 H          -0.9499   -3.2015   -3.1949 H       1  UNL1        0.0513
     72 H          -2.5736   -3.2682   -2.9282 H       1  UNL1        0.0513
     73 H          -3.1434   -3.0251   -5.9751 H       1  UNL1        0.0622
     74 H          -3.5039   -4.6570   -7.7065 H       1  UNL1        0.0624
     75 H          -3.1830   -9.4104   -6.5874 H       1  UNL1        0.0293
     76 H          -1.4312   -9.7421   -6.8193 H       1  UNL1        0.0293
     77 H          -1.9829   -8.3636   -5.8950 H       1  UNL1        0.0293
     78 H          -2.7089   -8.2541  -11.2315 H       1  UNL1        0.0907
     79 H          -0.1818   -6.9286   -6.1406 H       1  UNL1        0.0660
     80 H           0.0130   -4.5750   -2.3303 H       1  UNL1        0.0720
     81 H           1.5859   -5.2620   -2.6473 H       1  UNL1        0.0720
     82 H           1.5949   -3.2629   -3.1282 H       1  UNL1        0.0594
     83 H           2.1001   -4.2468   -4.4512 H       1  UNL1        0.0594
     84 H           0.0214   -4.3924   -6.1451 H       1  UNL1        0.0583
     85 H          -0.6751   -2.8641   -6.6555 H       1  UNL1        0.0583
     86 H           0.9187   -4.3756   -7.8793 H       1  UNL1        0.0583
     87 H           1.3033   -2.6384   -7.8510 H       1  UNL1        0.0583
     88 H           2.1150   -2.4939   -5.2859 H       1  UNL1        0.0604
     89 H           3.6456   -3.0628   -5.0756 H       1  UNL1        0.0604
     90 H           3.9661   -1.2126   -6.9095 H       1  UNL1        0.0589
     91 H           2.3984    0.6510   -6.5828 H       1  UNL1        0.0532
     92 H           1.1773   -0.3310   -5.8369 H       1  UNL1        0.0532
@<TRIPOS>BOND
     1     1     2    2
     2     3     4    1
     3     4     5    1
     4     5     6    1
     5     5     7    1
     6     7     8    1
     7     3     8    1
     8     8     9   am
     9    11    12    1
    10    11    13    1
    11    11    14    1
    12    10    15    1
    13    15    16   am
    14    16    17    1
    15    17    18    1
    16    18    19    3
    17    17    20    1
    18    20    21    1
    19    17    21    1
    20    16    22    2
    21     9    23    2
    22     2    24   am
    23    24    25    1
    24    25    26    1
    25    26    27   ar
    26    27    28   ar
    27    28    29   ar
    28    29    30    1
    29    30    31   ar
    30    31    32    1
    31    31    33   ar
    32    33    34   ar
    33    34    35   ar
    34    30    35   ar
    35    29    36   ar
    36    36    37   ar
    37    26    37   ar
    38    37    38    1
    39    38    39    1
    40    39    40    1
    41    40    41    1
    42    41    42    1
    43    42    43    1
    44    43    44    1
    45    44    45    1
    46    45    46    1
    47    46    47    2
    48     4    49    1
    49     4    50    1
    50     5    51    1
    51     6    52    1
    52     7    53    1
    53     7    54    1
    54    10    55    1
    55    12    56    1
    56    12    57    1
    57    12    58    1
    58    13    59    1
    59    13    60    1
    60    13    61    1
    61    14    62    1
    62    14    63    1
    63    14    64    1
    64    15    65    1
    65    20    66    1
    66    20    67    1
    67    21    68    1
    68    21    69    1
    69    24    70    1
    70    25    71    1
    71    25    72    1
    72    27    73    1
    73    28    74    1
    74    32    75    1
    75    32    76    1
    76    32    77    1
    77    34    78    1
    78    36    79    1
    79    39    80    1
    80    39    81    1
    81    40    82    1
    82    40    83    1
    83    42    84    1
    84    42    85    1
    85    43    86    1
    86    43    87    1
    87    45    88    1
    88    45    89    1
    89    46    90    1
    90    47    91    1
    91    47    92    1
    92     3    48    1
    93     3     2    1
    94    10    11    1
    95    10     9    1
