@<TRIPOS>MOLECULE
*****
 61 63 0 0 0
SMALL
GASTEIGER

@<TRIPOS>ATOM
      1 O           3.8341   -0.8525    2.9026 O.2     1  UNL1       -0.2738
      2 C           2.8951   -0.7399    2.1220 C.2     1  UNL1        0.2339
      3 N           1.6765   -0.3445    2.6198 N.am    1  UNL1       -0.3095
      4 C           0.4295   -0.0539    1.9327 C.3     1  UNL1        0.0403
      5 C          -0.7105   -0.9000    2.4576 C.ar    1  UNL1        0.0111
      6 C          -0.9346   -2.2284    2.0565 C.ar    1  UNL1        0.1221
      7 O          -0.1651   -2.8570    1.1454 O.3     1  UNL1       -0.5064
      8 C          -1.9667   -3.0166    2.5171 C.ar    1  UNL1       -0.0116
      9 C          -2.8430   -2.4830    3.4368 C.ar    1  UNL1       -0.0061
     10 C          -2.6650   -1.1566    3.8611 C.ar    1  UNL1       -0.0529
     11 C          -1.6105   -0.3703    3.3796 C.ar    1  UNL1       -0.0530
     12 C          -3.9952   -3.2587    3.8514 C.ar    1  UNL1        0.0418
     13 C          -5.3342   -2.9728    3.6595 C.ar    1  UNL1        0.0531
     14 C          -5.8865   -1.7772    2.9698 C.3     1  UNL1       -0.0212
     15 N          -6.2082   -3.9185    4.1692 N.ar    1  UNL1       -0.2520
     16 C          -5.5231   -4.8992    4.7157 C.ar    1  UNL1        0.0655
     17 S          -3.8178   -4.7622    4.6537 S.2     1  UNL1       -0.0752
     18 C           3.0198   -1.0805    0.6093 C.3     1  UNL1        0.1047
     19 N           4.3775   -1.0430    0.0817 N.am    1  UNL1       -0.2861
     20 C           5.1416    0.0740   -0.1834 C.2     1  UNL1        0.2336
     21 C           4.5887    1.4823    0.2346 C.3     1  UNL1        0.0874
     22 N           5.4988    2.0495    1.2467 N.3     1  UNL1       -0.3195
     23 C           4.4064    2.4382   -0.9905 C.3     1  UNL1       -0.0140
     24 C           3.4026    1.8279   -1.9898 C.3     1  UNL1       -0.0582
     25 C           3.8350    3.8026   -0.5358 C.3     1  UNL1       -0.0582
     26 C           5.7411    2.7013   -1.7122 C.3     1  UNL1       -0.0582
     27 O           6.2345   -0.0605   -0.7342 O.2     1  UNL1       -0.2739
     28 C           4.7988   -2.3466   -0.4300 C.3     1  UNL1        0.0416
     29 C           3.5111   -3.0964   -0.6777 C.3     1  UNL1        0.0731
     30 O           3.5794   -4.5042   -0.5642 O.3     1  UNL1       -0.3902
     31 C           2.5947   -2.5272    0.3713 C.3     1  UNL1        0.0018
     32 H           1.7048   -0.1475    3.6171 H       1  UNL1        0.1491
     33 H           0.2206    1.0140    2.0681 H       1  UNL1        0.0513
     34 H           0.5389   -0.1957    0.8555 H       1  UNL1        0.0513
     35 H           0.5078   -2.1981    0.9940 H       1  UNL1        0.2921
     36 H          -2.0811   -4.0230    2.1186 H       1  UNL1        0.0660
     37 H          -3.3745   -0.7181    4.5580 H       1  UNL1        0.0624
     38 H          -1.5199    0.6583    3.7195 H       1  UNL1        0.0622
     39 H          -6.5130   -2.0772    2.1266 H       1  UNL1        0.0293
     40 H          -6.4777   -1.1857    3.6730 H       1  UNL1        0.0293
     41 H          -5.0999   -1.1284    2.5708 H       1  UNL1        0.0293
     42 H          -6.0022   -5.7495    5.1812 H       1  UNL1        0.0907
     43 H           2.4217   -0.3794    0.0233 H       1  UNL1        0.0597
     44 H           3.6134    1.3796    0.7176 H       1  UNL1        0.0560
     45 H           5.1463    2.9345    1.5979 H       1  UNL1        0.1189
     46 H           5.5755    1.4131    2.0403 H       1  UNL1        0.1189
     47 H           2.4218    1.6779   -1.5234 H       1  UNL1        0.0236
     48 H           3.2583    2.4859   -2.8546 H       1  UNL1        0.0236
     49 H           3.7446    0.8602   -2.3702 H       1  UNL1        0.0236
     50 H           4.5101    4.3227    0.1515 H       1  UNL1        0.0236
     51 H           3.6837    4.4712   -1.3913 H       1  UNL1        0.0236
     52 H           2.8692    3.6819   -0.0322 H       1  UNL1        0.0236
     53 H           6.4844    3.1272   -1.0301 H       1  UNL1        0.0236
     54 H           6.1608    1.7882   -2.1413 H       1  UNL1        0.0236
     55 H           5.6125    3.3999   -2.5446 H       1  UNL1        0.0236
     56 H           5.4136   -2.8404    0.3270 H       1  UNL1        0.0490
     57 H           5.3695   -2.2624   -1.3591 H       1  UNL1        0.0490
     58 H           3.0991   -2.8512   -1.6653 H       1  UNL1        0.0610
     59 H           3.7756   -4.7424    0.3588 H       1  UNL1        0.2098
     60 H           1.6365   -2.5806   -0.1310 H       1  UNL1        0.0313
     61 H           2.5783   -3.1181    1.2971 H       1  UNL1        0.0313
@<TRIPOS>BOND
     1     1     2    2
     2     2     3   am
     3     3     4    1
     4     4     5    1
     5     5     6   ar
     6     6     7    1
     7     6     8   ar
     8     8     9   ar
     9     9    10   ar
    10    10    11   ar
    11     5    11   ar
    12     9    12    1
    13    12    13   ar
    14    13    14    1
    15    13    15   ar
    16    15    16   ar
    17    16    17   ar
    18    12    17   ar
    19    18    19    1
    20    19    20   am
    21    20    21    1
    22    21    22    1
    23    21    23    1
    24    23    24    1
    25    23    25    1
    26    23    26    1
    27    20    27    2
    28    19    28    1
    29    28    29    1
    30    29    30    1
    31    29    31    1
    32    18    31    1
    33     3    32    1
    34     4    33    1
    35     4    34    1
    36     7    35    1
    37     8    36    1
    38    10    37    1
    39    11    38    1
    40    14    39    1
    41    14    40    1
    42    14    41    1
    43    16    42    1
    44    21    44    1
    45    22    45    1
    46    22    46    1
    47    24    47    1
    48    24    48    1
    49    24    49    1
    50    25    50    1
    51    25    51    1
    52    25    52    1
    53    26    53    1
    54    26    54    1
    55    26    55    1
    56    28    56    1
    57    28    57    1
    58    29    58    1
    59    30    59    1
    60    31    60    1
    61    31    61    1
    62    18    43    1
    63    18     2    1
