@<TRIPOS>MOLECULE
*****
 143 150 0 0 0
SMALL
GASTEIGER

@<TRIPOS>ATOM
      1 C           3.0199   -7.0232    0.7682 C.3     1  UNL1        0.0788
      2 O           2.0629   -5.8081    1.6146 O.3     1  UNL1       -0.4948
      3 C           0.7691   -4.7410    0.9641 C.ar    1  UNL1        0.1253
      4 C           0.6931   -4.3342   -0.8329 C.ar    1  UNL1       -0.0084
      5 C          -0.1102   -3.1623   -2.0134 C.ar    1  UNL1        0.0292
      6 C          -0.7519   -3.8966   -3.6798 C.ar    1  UNL1        0.0099
      7 C          -0.4845   -3.0237   -4.7422 C.ar    1  UNL1       -0.0006
      8 C          -1.1473   -3.6659   -5.7191 C.ar    1  UNL1        0.0653
      9 C          -0.4462   -3.2730   -6.8011 C.ar    1  UNL1        0.0405
     10 N           0.8525   -2.4632   -6.9368 N.ar    1  UNL1       -0.2625
     11 C           1.5189   -1.8389   -5.8714 C.ar    1  UNL1        0.0282
     12 C           0.8925   -2.0339   -4.6757 C.ar    1  UNL1       -0.0351
     13 C          -1.2359   -5.4641   -3.7835 C.ar    1  UNL1        0.0160
     14 N          -2.2990   -5.5763   -4.4748 N.ar    1  UNL1       -0.3171
     15 C          -3.3674   -6.3882   -3.9150 C.3     1  UNL1        0.0147
     16 C          -2.1490   -4.8635   -5.6048 C.ar    1  UNL1        0.2603
     17 O          -2.7252   -5.2582   -6.5929 O.2     1  UNL1       -0.2670
     18 C          -0.5959   -2.1826   -1.1340 C.ar    1  UNL1        0.1284
     19 O          -0.4296   -0.9214   -1.8303 O.3     1  UNL1       -0.4945
     20 C          -1.1424   -1.0592   -3.0340 C.3     1  UNL1        0.0788
     21 C          -0.1734   -2.3725    0.5893 C.ar    1  UNL1       -0.0115
     22 C           0.5510   -3.5940    1.6378 C.ar    1  UNL1        0.0117
     23 C           1.8997   -3.5241    2.5312 C.3     1  UNL1        0.0277
     24 N           3.0378   -3.0514    1.7224 N.3     1  UNL1       -0.2956
     25 C           4.5364   -3.4404    0.4423 C.3     1  UNL1        0.0120
     26 C           4.4293   -2.9198   -1.5554 C.3     1  UNL1        0.0118
     27 N           3.1800   -1.5113   -1.8202 N.3     1  UNL1       -0.2977
     28 C           3.3199   -0.2503   -2.6136 C.3     1  UNL1        0.0224
     29 C           4.3015    0.4217   -1.8052 C.3     1  UNL1        0.0605
     30 O           5.5461   -0.0904   -1.4558 O.3     1  UNL1       -0.3762
     31 C           5.5430   -0.8333   -0.2563 C.3     1  UNL1        0.0711
     32 C           4.3040   -0.2331    1.1332 C.3     1  UNL1        0.0711
     33 O           3.0359    0.3733    0.9438 O.3     1  UNL1       -0.3742
     34 C           3.2933    1.6114    0.6451 C.3     1  UNL1        0.0818
     35 C           4.3135    1.6905    1.9173 C.3     1  UNL1        0.1128
     36 O           5.7498    0.5342    2.2807 O.3     1  UNL1       -0.4893
     37 C           5.6225   -1.1142    2.6799 C.ar    1  UNL1        0.1259
     38 C           6.0735   -1.5846    3.8249 C.ar    1  UNL1       -0.0113
     39 C           5.7408   -2.9987    4.1882 C.ar    1  UNL1       -0.0061
     40 C           6.7720   -3.6962    4.7841 C.ar    1  UNL1        0.0418
     41 C           7.5340   -4.7328    4.2950 C.ar    1  UNL1        0.0531
     42 C           7.5636   -5.3588    2.9262 C.3     1  UNL1       -0.0212
     43 N           8.3210   -5.2206    5.3004 N.ar    1  UNL1       -0.2520
     44 C           8.0757   -4.5345    6.4001 C.ar    1  UNL1        0.0655
     45 S           6.9242   -3.3082    6.3932 S.2     1  UNL1       -0.0752
     46 C           4.8285   -3.9484    3.7983 C.ar    1  UNL1       -0.0529
     47 C           4.7480   -3.7093    2.5433 C.ar    1  UNL1       -0.0530
     48 C           4.8115   -2.2314    2.0319 C.ar    1  UNL1        0.0113
     49 C           3.4867   -1.9343    0.5139 C.3     1  UNL1        0.0403
     50 N           3.0847   -2.8007   -0.5085 N.am    1  UNL1       -0.3095
     51 C           2.3897   -3.2008   -1.4740 C.2     1  UNL1        0.2339
     52 C           2.4279   -3.9456   -2.7038 C.3     1  UNL1        0.1047
     53 C           3.2976   -3.2816   -3.7951 C.3     1  UNL1        0.0018
     54 C           2.9398   -4.0709   -4.9646 C.3     1  UNL1        0.0731
     55 O           3.4852   -5.3371   -4.9432 O.3     1  UNL1       -0.3902
     56 C           1.4650   -4.5018   -4.7590 C.3     1  UNL1        0.0416
     57 N           0.9669   -4.7142   -3.1052 N.am    1  UNL1       -0.2858
     58 C          -0.6695   -4.9609   -2.0315 C.2     1  UNL1        0.2371
     59 C          -0.8465   -5.3746   -0.5771 C.3     1  UNL1        0.1045
     60 C           0.6670   -6.4366   -0.4871 C.3     1  UNL1       -0.0108
     61 C           2.3470   -5.3236   -0.2533 C.3     1  UNL1       -0.0579
     62 C           0.2651   -7.2119    0.7399 C.3     1  UNL1       -0.0579
     63 C           0.9351   -7.1460   -1.9329 C.3     1  UNL1       -0.0579
     64 N          -2.1375   -5.4630   -0.1833 N.am    1  UNL1       -0.3009
     65 C          -2.7171   -4.3034    0.3645 C.2     1  UNL1        0.2508
     66 C          -4.0464   -4.6528    0.6197 C.3     1  UNL1        0.1868
     67 F          -4.1536   -4.8959    1.9775 F       1  UNL1       -0.2320
     68 C          -5.0666   -4.1003   -0.2975 C.3     1  UNL1       -0.0068
     69 C          -4.8083   -5.5900   -0.2866 C.3     1  UNL1       -0.0068
     70 O          -2.3147   -3.2776    0.8850 O.2     1  UNL1       -0.2723
     71 O          -1.9145   -4.2364   -2.1372 O.2     1  UNL1       -0.2735
     72 O           1.3747   -2.6252   -1.0830 O.2     1  UNL1       -0.2738
     73 C           1.9710   -0.7064   -0.3313 C.3     1  UNL1        0.0118
     74 C           2.0334   -1.2474    1.6981 C.3     1  UNL1        0.0120
     75 H           3.1538   -7.7836    1.4808 H       1  UNL1        0.0660
     76 H           4.0037   -6.7029    0.3273 H       1  UNL1        0.0660
     77 H           2.4962   -7.4162   -0.1259 H       1  UNL1        0.0660
     78 H           1.2049   -5.2084   -1.5515 H       1  UNL1        0.0661
     79 H          -0.9426   -3.6089   -7.6897 H       1  UNL1        0.0837
     80 H           2.6289   -1.6725   -5.9456 H       1  UNL1        0.0830
     81 H           1.3813   -1.9051   -3.6332 H       1  UNL1        0.0639
     82 H          -1.5278   -6.2142   -2.8129 H       1  UNL1        0.0816
     83 H          -4.2501   -5.8050   -4.1196 H       1  UNL1        0.0457
     84 H          -3.2012   -7.3322   -4.4056 H       1  UNL1        0.0457
     85 H          -3.3454   -6.5834   -2.8116 H       1  UNL1        0.0457
     86 H          -0.4056   -1.4339   -3.6240 H       1  UNL1        0.0660
     87 H          -1.7786   -1.9452   -3.0976 H       1  UNL1        0.0660
     88 H          -1.1025   -0.3085   -3.8140 H       1  UNL1        0.0660
     89 H          -0.0784   -1.3330    0.9573 H       1  UNL1        0.0658
     90 H           1.9313   -2.7234    3.2654 H       1  UNL1        0.0477
     91 H           2.4001   -4.3542    3.0059 H       1  UNL1        0.0477
     92 H           5.6189   -2.6668    0.6112 H       1  UNL1        0.0439
     93 H           5.5160   -4.0769    0.5548 H       1  UNL1        0.0439
     94 H           4.1452   -4.0918   -1.2668 H       1  UNL1        0.0439
     95 H           5.3109   -3.2035   -2.2339 H       1  UNL1        0.0439
     96 H           3.7699   -0.6453   -3.4581 H       1  UNL1        0.0449
     97 H           2.2646    0.1298   -2.5056 H       1  UNL1        0.0449
     98 H           4.4081    1.4670   -1.7402 H       1  UNL1        0.0572
     99 H           3.5673    0.3224   -1.0684 H       1  UNL1        0.0572
    100 H           5.1218   -1.6385   -0.7696 H       1  UNL1        0.0583
    101 H           6.3575   -1.6597   -0.4045 H       1  UNL1        0.0583
    102 H           3.8194   -0.9610    1.8774 H       1  UNL1        0.0583
    103 H           4.2420   -0.1077    2.1855 H       1  UNL1        0.0583
    104 H           4.0021    1.3778   -0.0536 H       1  UNL1        0.0594
    105 H           2.2397    1.6147    0.1814 H       1  UNL1        0.0594
    106 H           4.8298    2.3924    1.3175 H       1  UNL1        0.0720
    107 H           3.6156    1.4633    2.7318 H       1  UNL1        0.0720
    108 H           6.7065   -0.9286    4.3705 H       1  UNL1        0.0660
    109 H           8.5666   -5.2710    2.5022 H       1  UNL1        0.0293
    110 H           7.2905   -6.4190    2.9806 H       1  UNL1        0.0293
    111 H           6.8882   -4.9043    2.1937 H       1  UNL1        0.0293
    112 H           8.5647   -4.7006    7.3268 H       1  UNL1        0.0907
    113 H           4.5311   -4.9815    3.9556 H       1  UNL1        0.0624
    114 H           4.1934   -4.5284    1.9911 H       1  UNL1        0.0622
    115 H           2.1791   -2.3383    0.5497 H       1  UNL1        0.0513
    116 H           3.6277   -1.0597   -0.0555 H       1  UNL1        0.0513
    117 H           3.4496   -2.0428   -0.9766 H       1  UNL1        0.1491
    118 H           3.0634   -4.8107   -2.6333 H       1  UNL1        0.0597
    119 H           4.3808   -3.3362   -3.6843 H       1  UNL1        0.0313
    120 H           3.2165   -2.2181   -3.9424 H       1  UNL1        0.0313
    121 H           3.3694   -3.4909   -5.8029 H       1  UNL1        0.0610
    122 H           2.8752   -5.7513   -4.3021 H       1  UNL1        0.2098
    123 H           1.1234   -3.7582   -5.3662 H       1  UNL1        0.0490
    124 H           1.0267   -5.1873   -5.4276 H       1  UNL1        0.0490
    125 H          -0.8470   -4.2768   -0.1423 H       1  UNL1        0.0600
    126 H           2.1726   -4.1886    0.2066 H       1  UNL1        0.0236
    127 H           3.3555   -5.5245   -0.3961 H       1  UNL1        0.0236
    128 H           2.6545   -5.0238   -1.1576 H       1  UNL1        0.0236
    129 H          -0.4276   -7.9411    0.4034 H       1  UNL1        0.0236
    130 H           1.1356   -7.6879    1.0988 H       1  UNL1        0.0236
    131 H          -0.0812   -6.6009    1.6090 H       1  UNL1        0.0236
    132 H           0.1338   -7.8106   -2.2042 H       1  UNL1        0.0236
    133 H           0.9062   -6.5683   -2.8666 H       1  UNL1        0.0236
    134 H           2.0159   -7.2959   -2.0168 H       1  UNL1        0.0236
    135 H          -2.5838   -6.0538   -0.8369 H       1  UNL1        0.1496
    136 H          -5.9557   -3.6571    0.0973 H       1  UNL1        0.0302
    137 H          -4.6863   -3.4881   -1.1198 H       1  UNL1        0.0302
    138 H          -4.3704   -6.0789   -1.1486 H       1  UNL1        0.0302
    139 H          -5.4795   -6.2932    0.1675 H       1  UNL1        0.0302
    140 H           1.2893   -1.4009   -0.2833 H       1  UNL1        0.0439
    141 H           1.0132   -0.2658   -0.6145 H       1  UNL1        0.0439
    142 H           1.2740   -1.0757    2.4930 H       1  UNL1        0.0439
    143 H           2.5301   -0.5255    2.5022 H       1  UNL1        0.0439
@<TRIPOS>BOND
     1     1     2    1
     2     2     3    1
     3     3     4   ar
     4     4     5   ar
     5     5     6    1
     6     6     7   ar
     7     7     8   ar
     8     8     9   ar
     9     9    10   ar
    10    10    11   ar
    11    11    12   ar
    12     7    12   ar
    13     6    13   ar
    14    13    14   ar
    15    14    15    1
    16    14    16   ar
    17     8    16   ar
    18    16    17    2
    19     5    18   ar
    20    18    19    1
    21    19    20    1
    22    18    21   ar
    23     3    22   ar
    24    21    22   ar
    25    22    23    1
    26    23    24    1
    27    24    25    1
    28    25    26    1
    29    26    27    1
    30    27    28    1
    31    28    29    1
    32    29    30    1
    33    30    31    1
    34    31    32    1
    35    32    33    1
    36    33    34    1
    37    34    35    1
    38    35    36    1
    39    36    37    1
    40    37    38   ar
    41    38    39   ar
    42    39    40    1
    43    40    41   ar
    44    41    42    1
    45    41    43   ar
    46    43    44   ar
    47    44    45   ar
    48    40    45   ar
    49    39    46   ar
    50    46    47   ar
    51    47    48   ar
    52    37    48   ar
    53    48    49    1
    54    49    50    1
    55    50    51   am
    56    52    53    1
    57    53    54    1
    58    54    55    1
    59    54    56    1
    60    56    57    1
    61    52    57    1
    62    57    58   am
    63    60    61    1
    64    60    62    1
    65    60    63    1
    66    59    64    1
    67    64    65   am
    68    65    66    1
    69    66    67    1
    70    66    68    1
    71    68    69    1
    72    66    69    1
    73    65    70    2
    74    58    71    2
    75    51    72    2
    76    27    73    1
    77    73    74    1
    78    24    74    1
    79     1    75    1
    80     1    76    1
    81     1    77    1
    82     4    78    1
    83     9    79    1
    84    11    80    1
    85    12    81    1
    86    13    82    1
    87    15    83    1
    88    15    84    1
    89    15    85    1
    90    20    86    1
    91    20    87    1
    92    20    88    1
    93    21    89    1
    94    23    90    1
    95    23    91    1
    96    25    92    1
    97    25    93    1
    98    26    94    1
    99    26    95    1
   100    28    96    1
   101    28    97    1
   102    29    98    1
   103    29    99    1
   104    31   100    1
   105    31   101    1
   106    32   102    1
   107    32   103    1
   108    34   104    1
   109    34   105    1
   110    35   106    1
   111    35   107    1
   112    38   108    1
   113    42   109    1
   114    42   110    1
   115    42   111    1
   116    44   112    1
   117    46   113    1
   118    47   114    1
   119    49   115    1
   120    49   116    1
   121    50   117    1
   122    53   119    1
   123    53   120    1
   124    54   121    1
   125    55   122    1
   126    56   123    1
   127    56   124    1
   128    59   125    1
   129    61   126    1
   130    61   127    1
   131    61   128    1
   132    62   129    1
   133    62   130    1
   134    62   131    1
   135    63   132    1
   136    63   133    1
   137    63   134    1
   138    64   135    1
   139    68   136    1
   140    68   137    1
   141    69   138    1
   142    69   139    1
   143    73   140    1
   144    73   141    1
   145    74   142    1
   146    74   143    1
   147    52   118    1
   148    52    51    1
   149    59    60    1
   150    59    58    1
