@<TRIPOS>MOLECULE
*****
 139 145 0 0 0
SMALL
GASTEIGER

@<TRIPOS>ATOM
      1 C           0.3650   -2.4199   -0.0760 C.3     1  UNL1       -0.0579
      2 C           0.5521   -2.7655    1.4081 C.3     1  UNL1       -0.0108
      3 C          -0.7037   -3.3234    2.0512 C.3     1  UNL1       -0.0579
      4 C           1.6316   -3.7734    1.4399 C.3     1  UNL1       -0.0579
      5 C           0.9717   -1.5901    2.2196 C.3     1  UNL1        0.1045
      6 N           0.2288   -0.6124    1.5028 N.am    1  UNL1       -0.3016
      7 C          -1.2017   -0.4875    1.2068 C.2     1  UNL1        0.2394
      8 C          -2.0505    0.3991    0.3077 C.3     1  UNL1        0.1237
      9 O          -2.0563    0.2778   -1.0994 O.3     1  UNL1       -0.3683
     10 C          -0.7766    0.0353   -1.8240 C.3     1  UNL1        0.0716
     11 C           0.9864    0.2137   -1.5487 C.3     1  UNL1        0.0711
     12 O           1.3485    0.7551    0.0436 O.3     1  UNL1       -0.3752
     13 C          -0.0726    1.6938    0.7907 C.3     1  UNL1        0.0711
     14 C          -1.3855    2.5541   -0.7118 C.3     1  UNL1        0.0711
     15 O          -1.5642    2.7006   -2.1821 O.3     1  UNL1       -0.3762
     16 C          -0.4199    3.0367   -3.0079 C.3     1  UNL1        0.0605
     17 C           0.6885    4.1065   -2.5387 C.3     1  UNL1        0.0224
     18 N           1.3192    4.5147   -1.3047 N.3     1  UNL1       -0.2977
     19 C           0.1519    5.2849   -0.7181 C.3     1  UNL1        0.0118
     20 C          -1.4005    4.7973   -0.3844 C.3     1  UNL1        0.0120
     21 N          -0.4680    3.6368    0.6935 N.3     1  UNL1       -0.2955
     22 C          -0.3553    3.5653    2.3365 C.3     1  UNL1        0.0311
     23 C           0.9110    4.2530    2.5473 C.ar    1  UNL1        0.0498
     24 C           2.1377    3.6116    2.8099 C.ar    1  UNL1        0.1285
     25 O           2.5275    2.3712    3.2479 O.3     1  UNL1       -0.4947
     26 C           1.6091    1.3410    3.1449 C.3     1  UNL1        0.0788
     27 C           3.2233    4.4400    2.7149 C.ar    1  UNL1       -0.0116
     28 C           3.1647    5.6679    2.0512 C.ar    1  UNL1       -0.0090
     29 C           4.3379    6.4900    1.9373 C.ar    1  UNL1        0.0065
     30 C           4.2791    7.7435    2.3951 C.ar    1  UNL1        0.0159
     31 N           5.3524    8.5985    2.3472 N.ar    1  UNL1       -0.3171
     32 C           5.2421    9.9132    2.8854 C.3     1  UNL1        0.0147
     33 C           6.5827    8.2604    1.8290 C.ar    1  UNL1        0.2603
     34 C           6.6794    6.9259    1.3322 C.ar    1  UNL1        0.0653
     35 C           5.5849    6.0645    1.3770 C.ar    1  UNL1       -0.0007
     36 C           5.6933    4.8578    0.7933 C.ar    1  UNL1       -0.0351
     37 C           6.7703    4.9018   -0.0422 C.ar    1  UNL1        0.0282
     38 N           7.9371    5.4981    0.0518 N.ar    1  UNL1       -0.2625
     39 C           7.8741    6.5461    0.7914 C.ar    1  UNL1        0.0405
     40 O           7.5674    8.9845    1.7552 O.2     1  UNL1       -0.2670
     41 C           1.9925    6.1923    1.6065 C.ar    1  UNL1       -0.0116
     42 C           0.8590    5.6278    2.1149 C.ar    1  UNL1        0.1285
     43 O          -0.2375    6.4851    1.8379 O.3     1  UNL1       -0.4947
     44 C          -1.5459    5.9659    1.6402 C.3     1  UNL1        0.0788
     45 C           0.6777    2.7200   -0.5653 C.3     1  UNL1        0.0120
     46 C           1.9071    3.3253   -0.5888 C.3     1  UNL1        0.0118
     47 O          -2.0910   -1.2153    1.5981 O.2     1  UNL1       -0.2733
     48 C           2.5944   -1.3785    2.1997 C.2     1  UNL1        0.2371
     49 N           3.2667   -1.4388    3.4186 N.am    1  UNL1       -0.2858
     50 C           4.4425   -0.5722    3.7340 C.3     1  UNL1        0.1047
     51 C           5.5433   -0.5794    2.6588 C.2     1  UNL1        0.2339
     52 N           5.9066    0.6447    2.1148 N.am    1  UNL1       -0.3097
     53 C           6.8852    0.6725    1.0395 C.3     1  UNL1        0.0369
     54 C           6.3103    1.1453   -0.2604 C.ar    1  UNL1       -0.0303
     55 C           6.5475    2.4038   -0.6807 C.ar    1  UNL1       -0.0565
     56 C           5.8308    3.0153   -1.7753 C.ar    1  UNL1       -0.0532
     57 C           5.2177    2.2783   -2.7082 C.ar    1  UNL1       -0.0095
     58 C           4.8165    2.8963   -3.9606 C.ar    1  UNL1        0.0417
     59 C           3.5722    2.9497   -4.5163 C.ar    1  UNL1        0.0531
     60 C           2.3871    2.4474   -3.9201 C.3     1  UNL1       -0.0212
     61 N           3.4082    3.5611   -5.7182 N.ar    1  UNL1       -0.2520
     62 C           4.5944    3.8731   -6.1576 C.ar    1  UNL1        0.0655
     63 S           5.9044    3.5959   -5.0829 S.2     1  UNL1       -0.0752
     64 C           5.0160    0.9726   -2.3322 C.ar    1  UNL1       -0.0532
     65 C           5.5433    0.4220   -1.1343 C.ar    1  UNL1       -0.0565
     66 O           6.0673   -1.6351    2.3050 O.2     1  UNL1       -0.2738
     67 C           4.9481   -1.1578    5.0735 C.3     1  UNL1        0.0018
     68 C           3.6876   -1.7290    5.7225 C.3     1  UNL1        0.0731
     69 O           2.9143   -0.6933    6.3321 O.3     1  UNL1       -0.3902
     70 C           2.9189   -2.3106    4.5415 C.3     1  UNL1        0.0416
     71 O           3.1908   -1.0955    1.1585 O.2     1  UNL1       -0.2735
     72 H           0.0058   -3.2040   -0.7152 H       1  UNL1        0.0236
     73 H           1.2159   -1.8740   -0.5111 H       1  UNL1        0.0236
     74 H          -0.4937   -1.7953   -0.1258 H       1  UNL1        0.0236
     75 H          -1.1061   -4.1110    1.4373 H       1  UNL1        0.0236
     76 H          -0.5260   -3.5387    3.0973 H       1  UNL1        0.0236
     77 H          -1.5590   -2.7150    2.2118 H       1  UNL1        0.0236
     78 H           2.5387   -3.3865    0.9692 H       1  UNL1        0.0236
     79 H           1.8200   -4.0128    2.4821 H       1  UNL1        0.0236
     80 H           1.2938   -4.6224    0.8649 H       1  UNL1        0.0236
     81 H           0.6162   -1.4863    3.2421 H       1  UNL1        0.0600
     82 H           0.9964   -0.1173    0.9842 H       1  UNL1        0.1495
     83 H          -2.6821    1.1309    0.9470 H       1  UNL1        0.0656
     84 H          -1.6044    1.2395    0.2128 H       1  UNL1        0.0656
     85 H          -0.6711   -0.9256   -1.4634 H       1  UNL1        0.0583
     86 H          -1.0540    0.0439   -2.8836 H       1  UNL1        0.0583
     87 H           1.5817    0.3799   -2.5005 H       1  UNL1        0.0583
     88 H           1.2691    1.2038   -1.7978 H       1  UNL1        0.0583
     89 H          -0.0821    1.0134    1.4385 H       1  UNL1        0.0583
     90 H          -0.4839    1.7634    1.7389 H       1  UNL1        0.0583
     91 H          -2.3157    2.8457   -0.2478 H       1  UNL1        0.0583
     92 H          -0.7908    3.4026   -1.0367 H       1  UNL1        0.0583
     93 H          -0.5680    3.4835   -3.9661 H       1  UNL1        0.0572
     94 H          -0.3909    2.0921   -3.5503 H       1  UNL1        0.0572
     95 H           1.6384    3.7298   -2.7056 H       1  UNL1        0.0449
     96 H           0.4955    5.0149   -3.0786 H       1  UNL1        0.0449
     97 H           0.7092    5.1702    0.1569 H       1  UNL1        0.0439
     98 H           0.1204    6.2935   -1.1031 H       1  UNL1        0.0439
     99 H          -1.9702    4.5803   -1.3490 H       1  UNL1        0.0439
    100 H          -2.4007    4.6391    0.2128 H       1  UNL1        0.0439
    101 H          -1.2466    3.8370    2.9284 H       1  UNL1        0.0478
    102 H          -0.3884    2.6401    2.9719 H       1  UNL1        0.0478
    103 H           0.6567    1.3829    3.6705 H       1  UNL1        0.0660
    104 H           1.5619    1.2987    2.0980 H       1  UNL1        0.0660
    105 H           1.9354    0.3457    3.3459 H       1  UNL1        0.0660
    106 H           4.1289    4.1489    3.2243 H       1  UNL1        0.0660
    107 H           3.3651    8.1266    2.8346 H       1  UNL1        0.0816
    108 H           5.9889   10.0118    3.6768 H       1  UNL1        0.0457
    109 H           5.4554   10.6249    2.0853 H       1  UNL1        0.0457
    110 H           4.2418   10.0707    3.2832 H       1  UNL1        0.0457
    111 H           4.9468    4.0613    0.8383 H       1  UNL1        0.0639
    112 H           6.9376    4.4337   -0.9595 H       1  UNL1        0.0830
    113 H           8.7992    7.0738    0.8225 H       1  UNL1        0.0837
    114 H           1.9220    7.0400    0.9262 H       1  UNL1        0.0660
    115 H          -0.9579    5.2489    1.2372 H       1  UNL1        0.0660
    116 H          -2.0716    5.0774    2.0686 H       1  UNL1        0.0660
    117 H          -2.1136    6.3228    0.7246 H       1  UNL1        0.0660
    118 H           0.1776    2.1652   -1.4770 H       1  UNL1        0.0439
    119 H           0.0922    1.4748   -0.7477 H       1  UNL1        0.0439
    120 H           2.6579    2.6497   -1.0175 H       1  UNL1        0.0439
    121 H           2.2167    3.3374    0.4440 H       1  UNL1        0.0439
    122 H           4.1009    0.4540    3.9089 H       1  UNL1        0.0597
    123 H           5.4391    1.5109    2.3659 H       1  UNL1        0.1491
    124 H           7.7126    1.3196    1.3743 H       1  UNL1        0.0512
    125 H           7.3074   -0.3125    0.8559 H       1  UNL1        0.0512
    126 H           7.3028    2.8770   -0.0411 H       1  UNL1        0.0621
    127 H           5.6984    4.0878   -1.9983 H       1  UNL1        0.0624
    128 H           1.7156    3.2588   -4.2135 H       1  UNL1        0.0293
    129 H           1.8648    1.5945   -4.2938 H       1  UNL1        0.0293
    130 H           2.5954    2.2716   -2.8592 H       1  UNL1        0.0293
    131 H           4.6984    4.2657   -7.1536 H       1  UNL1        0.0907
    132 H           4.4198    0.3531   -2.9743 H       1  UNL1        0.0624
    133 H           5.4081   -0.6226   -0.9171 H       1  UNL1        0.0621
    134 H           5.4363   -0.4098    5.7070 H       1  UNL1        0.0313
    135 H           5.6676   -1.9668    4.8960 H       1  UNL1        0.0313
    136 H           3.9085   -2.4684    6.4994 H       1  UNL1        0.0610
    137 H           2.6414   -0.0657    5.6420 H       1  UNL1        0.2098
    138 H           3.2642   -3.3222    4.3006 H       1  UNL1        0.0490
    139 H           1.8424   -2.3351    4.7148 H       1  UNL1        0.0490
@<TRIPOS>BOND
     1     1     2    1
     2     2     3    1
     3     2     4    1
     4     6     7   am
     5     7     8    1
     6     8     9    1
     7     9    10    1
     8    10    11    1
     9    11    12    1
    10    12    13    1
    11    13    14    1
    12    14    15    1
    13    15    16    1
    14    16    17    1
    15    17    18    1
    16    18    19    1
    17    19    20    1
    18    20    21    1
    19    21    22    1
    20    22    23    1
    21    23    24   ar
    22    24    25    1
    23    25    26    1
    24    24    27   ar
    25    27    28   ar
    26    28    29    1
    27    29    30   ar
    28    30    31   ar
    29    31    32    1
    30    31    33   ar
    31    33    34   ar
    32    34    35   ar
    33    29    35   ar
    34    35    36   ar
    35    36    37   ar
    36    37    38   ar
    37    38    39   ar
    38    34    39   ar
    39    33    40    2
    40    28    41   ar
    41    41    42   ar
    42    23    42   ar
    43    42    43    1
    44    43    44    1
    45    21    45    1
    46    45    46    1
    47    18    46    1
    48     7    47    2
    49     5    48    1
    50    48    49   am
    51    49    50    1
    52    50    51    1
    53    51    52   am
    54    52    53    1
    55    53    54    1
    56    54    55   ar
    57    55    56   ar
    58    56    57   ar
    59    57    58    1
    60    58    59   ar
    61    59    60    1
    62    59    61   ar
    63    61    62   ar
    64    62    63   ar
    65    58    63   ar
    66    57    64   ar
    67    64    65   ar
    68    54    65   ar
    69    51    66    2
    70    50    67    1
    71    67    68    1
    72    68    69    1
    73    68    70    1
    74    49    70    1
    75    48    71    2
    76     1    72    1
    77     1    73    1
    78     1    74    1
    79     3    75    1
    80     3    76    1
    81     3    77    1
    82     4    78    1
    83     4    79    1
    84     4    80    1
    85     5    81    1
    86     6    82    1
    87     8    83    1
    88     8    84    1
    89    10    85    1
    90    10    86    1
    91    11    87    1
    92    11    88    1
    93    13    89    1
    94    13    90    1
    95    14    91    1
    96    14    92    1
    97    16    93    1
    98    16    94    1
    99    17    95    1
   100    17    96    1
   101    19    97    1
   102    19    98    1
   103    20    99    1
   104    20   100    1
   105    22   101    1
   106    22   102    1
   107    26   103    1
   108    26   104    1
   109    26   105    1
   110    27   106    1
   111    30   107    1
   112    32   108    1
   113    32   109    1
   114    32   110    1
   115    36   111    1
   116    37   112    1
   117    39   113    1
   118    41   114    1
   119    44   115    1
   120    44   116    1
   121    44   117    1
   122    45   118    1
   123    45   119    1
   124    46   120    1
   125    46   121    1
   126    50   122    1
   127    52   123    1
   128    53   124    1
   129    53   125    1
   130    55   126    1
   131    56   127    1
   132    60   128    1
   133    60   129    1
   134    60   130    1
   135    62   131    1
   136    64   132    1
   137    65   133    1
   138    67   134    1
   139    67   135    1
   140    68   136    1
   141    69   137    1
   142    70   138    1
   143    70   139    1
   144     5     6    1
   145     5     2    1
