@<TRIPOS>MOLECULE
*****
 96 99 0 0 0
SMALL
GASTEIGER

@<TRIPOS>ATOM
      1 C          -5.6701   -8.4354   -2.4448 C.3     1  UNL1       -0.0212
      2 C          -5.1425   -9.0722   -3.6600 C.ar    1  UNL1        0.0531
      3 C          -3.7982   -9.0641   -4.0324 C.ar    1  UNL1        0.0418
      4 S          -3.7506   -9.5662   -5.7197 S.2     1  UNL1       -0.0752
      5 C          -5.3976  -10.0762   -5.5985 C.ar    1  UNL1        0.0655
      6 N          -6.0385   -9.6627   -4.5320 N.ar    1  UNL1       -0.2520
      7 C          -2.6084   -8.8035   -3.1035 C.ar    1  UNL1       -0.0061
      8 C          -1.4176   -7.9663   -3.4210 C.ar    1  UNL1       -0.0529
      9 C          -0.2014   -7.8753   -2.4009 C.ar    1  UNL1       -0.0530
     10 C          -0.2332   -8.6254   -1.0028 C.ar    1  UNL1        0.0113
     11 C           0.8906   -8.2591    0.0100 C.3     1  UNL1        0.0403
     12 N           2.2149   -8.5643   -0.4801 N.am    1  UNL1       -0.3095
     13 C           3.3427   -8.0103   -0.9760 C.2     1  UNL1        0.2339
     14 C           4.4147   -9.0926   -1.5141 C.3     1  UNL1        0.1047
     15 C           5.7954   -8.5446   -1.8810 C.3     1  UNL1        0.0018
     16 C           6.2627   -9.5060   -2.9737 C.3     1  UNL1        0.0731
     17 O           6.8047  -10.7117   -2.4160 O.3     1  UNL1       -0.3902
     18 C           4.9845   -9.8086   -3.7477 C.3     1  UNL1        0.0416
     19 N           3.9405   -9.8168   -2.7372 N.am    1  UNL1       -0.2858
     20 C           2.7771  -10.5283   -3.0309 C.2     1  UNL1        0.2371
     21 C           1.7495  -10.7810   -1.9222 C.3     1  UNL1        0.1045
     22 C           2.2555  -11.4272   -0.4849 C.3     1  UNL1       -0.0108
     23 C           3.2644  -12.4108   -1.0043 C.3     1  UNL1       -0.0579
     24 C           2.9335  -10.6662    0.7758 C.3     1  UNL1       -0.0579
     25 C           1.0835  -12.0974    0.2250 C.3     1  UNL1       -0.0579
     26 N           0.6156  -11.5772   -2.3345 N.am    1  UNL1       -0.3009
     27 C          -0.5582  -11.0319   -2.6447 C.2     1  UNL1        0.2508
     28 C          -1.7943  -11.8027   -2.6220 C.3     1  UNL1        0.1868
     29 F          -2.4745  -11.8960   -1.4228 F       1  UNL1       -0.2320
     30 C          -2.3702  -11.6315   -4.0047 C.3     1  UNL1       -0.0068
     31 C          -2.3418  -12.9153   -3.3265 C.3     1  UNL1       -0.0068
     32 O          -0.5280   -9.9921   -2.9959 O.2     1  UNL1       -0.2723
     33 O           2.5061  -10.9051   -4.1749 O.2     1  UNL1       -0.2735
     34 O           3.4763   -6.8007   -0.9832 O.2     1  UNL1       -0.2738
     35 C          -1.3535   -9.6395   -0.7372 C.ar    1  UNL1        0.1259
     36 O          -1.4862  -10.3630    0.5494 O.3     1  UNL1       -0.4893
     37 C          -2.7704  -11.0733    0.9756 C.3     1  UNL1        0.1128
     38 C          -4.2687  -10.3870    0.8380 C.3     1  UNL1        0.0818
     39 O          -4.4479   -9.3186   -0.0865 O.3     1  UNL1       -0.3742
     40 C          -3.3782   -8.2814   -0.0574 C.3     1  UNL1        0.0711
     41 C          -2.2270   -7.5889    0.8126 C.3     1  UNL1        0.0711
     42 O          -2.3715   -7.4627    2.2157 O.3     1  UNL1       -0.3752
     43 C          -3.3450   -8.4257    2.5248 C.3     1  UNL1        0.0711
     44 C          -4.7428   -7.6701    2.0987 C.3     1  UNL1        0.0715
     45 O          -5.1359   -7.1130    0.7405 O.3     1  UNL1       -0.3703
     46 C          -4.3658   -6.0954    0.0264 C.3     1  UNL1        0.1028
     47 C          -3.7424   -5.1823    1.0186 C.2     1  UNL1        0.1458
     48 H          -2.7672   -5.4047    1.4834 H       1  UNL1        0.1051
     49 O          -4.4291   -4.2638    1.4584 O.2     1  UNL1       -0.2986
     50 C          -2.5686   -9.6377   -1.8152 C.ar    1  UNL1       -0.0113
     51 H          -6.0634   -7.4550   -2.6902 H       1  UNL1        0.0293
     52 H          -6.3456   -9.0538   -1.8538 H       1  UNL1        0.0293
     53 H          -4.8677   -8.1609   -1.8033 H       1  UNL1        0.0293
     54 H          -5.8981  -10.6323   -6.3830 H       1  UNL1        0.0907
     55 H          -1.2794   -7.7642   -4.5143 H       1  UNL1        0.0624
     56 H           0.8564   -7.8633   -2.8933 H       1  UNL1        0.0622
     57 H           0.8920   -7.1949    0.1593 H       1  UNL1        0.0513
     58 H           0.7248   -8.8313    0.9506 H       1  UNL1        0.0513
     59 H           2.2458   -9.5198   -0.5715 H       1  UNL1        0.1491
     60 H           4.7624   -9.8160   -0.7746 H       1  UNL1        0.0597
     61 H           6.4812   -8.5663   -1.0192 H       1  UNL1        0.0313
     62 H           5.7001   -7.5188   -2.2291 H       1  UNL1        0.0313
     63 H           7.0467   -9.0628   -3.5881 H       1  UNL1        0.0610
     64 H           6.0995  -11.2145   -1.9746 H       1  UNL1        0.2098
     65 H           4.7428   -9.0104   -4.4524 H       1  UNL1        0.0490
     66 H           5.0180  -10.7753   -4.2597 H       1  UNL1        0.0490
     67 H           1.3927   -9.7637   -1.9630 H       1  UNL1        0.0600
     68 H           4.0822  -11.8716   -1.4822 H       1  UNL1        0.0236
     69 H           3.6908  -12.9830   -0.1963 H       1  UNL1        0.0236
     70 H           2.7927  -13.0386   -1.7657 H       1  UNL1        0.0236
     71 H           2.2648   -9.9912    1.3267 H       1  UNL1        0.0236
     72 H           3.4054  -11.2677    1.5460 H       1  UNL1        0.0236
     73 H           3.7350  -10.0237    0.4923 H       1  UNL1        0.0236
     74 H           0.4361  -11.3239    0.6260 H       1  UNL1        0.0236
     75 H           0.5015  -12.7512   -0.4213 H       1  UNL1        0.0236
     76 H           1.4336  -12.6660    1.0843 H       1  UNL1        0.0236
     77 H           0.5572  -12.5234   -2.5460 H       1  UNL1        0.1496
     78 H          -3.3848  -11.3207   -4.1032 H       1  UNL1        0.0302
     79 H          -1.6555  -11.1768   -4.7038 H       1  UNL1        0.0302
     80 H          -1.5670  -13.6083   -3.1214 H       1  UNL1        0.0302
     81 H          -3.3284  -13.0656   -2.8549 H       1  UNL1        0.0302
     82 H          -2.7613  -12.0305    0.4688 H       1  UNL1        0.0720
     83 H          -2.6256  -11.3804    2.0381 H       1  UNL1        0.0720
     84 H          -5.0141  -11.0763    1.2604 H       1  UNL1        0.0594
     85 H          -4.7441   -9.7371    1.5364 H       1  UNL1        0.0594
     86 H          -2.8472   -9.0941    0.1895 H       1  UNL1        0.0583
     87 H          -3.2030   -7.9069   -1.0679 H       1  UNL1        0.0583
     88 H          -1.6763   -6.8631    0.1821 H       1  UNL1        0.0583
     89 H          -1.3879   -8.2338    0.9183 H       1  UNL1        0.0583
     90 H          -2.8464   -9.3149    2.1248 H       1  UNL1        0.0583
     91 H          -3.4088   -8.8965    3.5157 H       1  UNL1        0.0583
     92 H          -5.5892   -8.3084    2.3942 H       1  UNL1        0.0583
     93 H          -4.7490   -6.8091    2.7422 H       1  UNL1        0.0583
     94 H          -5.0196   -5.4438   -0.5315 H       1  UNL1        0.0636
     95 H          -3.9051   -6.3497   -0.9669 H       1  UNL1        0.0636
     96 H          -3.5098  -10.2672   -1.6282 H       1  UNL1        0.0660
@<TRIPOS>BOND
     1     1     2    1
     2     2     3   ar
     3     3     4   ar
     4     4     5   ar
     5     5     6   ar
     6     2     6   ar
     7     3     7    1
     8     7     8   ar
     9     8     9   ar
    10     9    10   ar
    11    10    11    1
    12    11    12    1
    13    12    13   am
    14    14    15    1
    15    15    16    1
    16    16    17    1
    17    16    18    1
    18    18    19    1
    19    14    19    1
    20    19    20   am
    21    22    23    1
    22    22    24    1
    23    22    25    1
    24    21    26    1
    25    26    27   am
    26    27    28    1
    27    28    29    1
    28    28    30    1
    29    30    31    1
    30    28    31    1
    31    27    32    2
    32    20    33    2
    33    13    34    2
    34    10    35   ar
    35    35    36    1
    36    36    37    1
    37    37    38    1
    38    38    39    1
    39    39    40    1
    40    40    41    1
    41    41    42    1
    42    42    43    1
    43    43    44    1
    44    44    45    1
    45    45    46    1
    46    46    47    1
    47    47    48    1
    48    47    49    2
    49    35    50   ar
    50     7    50   ar
    51     1    51    1
    52     1    52    1
    53     1    53    1
    54     5    54    1
    55     8    55    1
    56     9    56    1
    57    11    57    1
    58    11    58    1
    59    12    59    1
    60    15    61    1
    61    15    62    1
    62    16    63    1
    63    17    64    1
    64    18    65    1
    65    18    66    1
    66    21    67    1
    67    23    68    1
    68    23    69    1
    69    23    70    1
    70    24    71    1
    71    24    72    1
    72    24    73    1
    73    25    74    1
    74    25    75    1
    75    25    76    1
    76    26    77    1
    77    30    78    1
    78    30    79    1
    79    31    80    1
    80    31    81    1
    81    37    82    1
    82    37    83    1
    83    38    84    1
    84    38    85    1
    85    40    86    1
    86    40    87    1
    87    41    88    1
    88    41    89    1
    89    43    90    1
    90    43    91    1
    91    44    92    1
    92    44    93    1
    93    46    94    1
    94    46    95    1
    95    50    96    1
    96    14    60    1
    97    14    13    1
    98    21    22    1
    99    21    20    1
