@<TRIPOS>MOLECULE
*****
 36 38 0 0 0
SMALL
GASTEIGER

@<TRIPOS>ATOM
      1 CL          0.9725   -0.1027   -0.0500 Cl      1  UNL1       -0.0814
      2 C           2.6657   -0.0285   -0.0482 C.ar    1  UNL1        0.0660
      3 C           3.3979    1.1236   -0.0431 C.ar    1  UNL1        0.0212
      4 N           4.6984    0.7507   -0.0277 N.ar    1  UNL1       -0.3578
      5 C           4.8780   -0.6080   -0.0415 C.ar    1  UNL1        0.0706
      6 C           6.0536   -1.3821   -0.0533 C.ar    1  UNL1        0.0719
      7 N           7.4060   -0.8940    0.1431 N.pl3   1  UNL1       -0.2142
      8 S           7.9524    0.6994   -0.1211 S.O2    1  UNL1        0.0724
      9 C           8.7930    1.1160    1.3862 C.ar    1  UNL1        0.1085
     10 C           8.7493    2.4486    1.8195 C.ar    1  UNL1       -0.0348
     11 C           9.5659    2.8556    2.8660 C.ar    1  UNL1       -0.0555
     12 C          10.3318    1.9144    3.5629 C.ar    1  UNL1       -0.0337
     13 C          11.3217    2.3812    4.5981 C.3     1  UNL1        0.0185
     14 N          12.3305    3.2433    3.9876 N.3     1  UNL1       -0.3261
     15 C          10.2011    0.5527    3.2442 C.ar    1  UNL1       -0.0555
     16 C           9.4778    0.1534    2.1194 C.ar    1  UNL1       -0.0348
     17 O           8.9369    0.6656   -1.1722 O.2     1  UNL1       -0.1500
     18 O           6.8782    1.6702   -0.1706 O.2     1  UNL1       -0.1500
     19 C           5.8351   -2.7835   -0.0458 C.ar    1  UNL1       -0.0373
     20 C           4.5471   -3.3437   -0.0573 C.ar    1  UNL1       -0.0592
     21 C           3.4150   -2.5272   -0.0580 C.ar    1  UNL1       -0.0511
     22 C           3.5781   -1.1317   -0.0538 C.ar    1  UNL1        0.0198
     23 H           3.1418    2.1727   -0.0476 H       1  UNL1        0.0822
     24 H           5.4545    1.4172   -0.0462 H       1  UNL1        0.1654
     25 H           8.1206   -1.5524   -0.1806 H       1  UNL1        0.1738
     26 H           8.1192    3.1867    1.3274 H       1  UNL1        0.0637
     27 H           9.6404    3.9136    3.1138 H       1  UNL1        0.0621
     28 H          10.7947    2.9289    5.3857 H       1  UNL1        0.0471
     29 H          11.8183    1.5233    5.0633 H       1  UNL1        0.0471
     30 H          13.0293    3.4984    4.6806 H       1  UNL1        0.1185
     31 H          12.8169    2.7236    3.2575 H       1  UNL1        0.1185
     32 H          10.6949   -0.2020    3.8506 H       1  UNL1        0.0621
     33 H           9.4702   -0.8903    1.8249 H       1  UNL1        0.0637
     34 H           6.6731   -3.4807   -0.0217 H       1  UNL1        0.0637
     35 H           4.4099   -4.4244   -0.0519 H       1  UNL1        0.0618
     36 H           2.4158   -2.9539   -0.0547 H       1  UNL1        0.0625
@<TRIPOS>BOND
     1     1     2    1
     2     2     3   ar
     3     3     4   ar
     4     4     5   ar
     5     5     6   ar
     6     6     7    1
     7     7     8    1
     8     8     9    1
     9     9    10   ar
    10    10    11   ar
    11    11    12   ar
    12    12    13    1
    13    13    14    1
    14    12    15   ar
    15    15    16   ar
    16     9    16   ar
    17     8    17    2
    18     8    18    2
    19     6    19   ar
    20    19    20   ar
    21    20    21   ar
    22    21    22   ar
    23     5    22   ar
    24     2    22   ar
    25     3    23    1
    26     4    24    1
    27     7    25    1
    28    10    26    1
    29    11    27    1
    30    13    28    1
    31    13    29    1
    32    14    30    1
    33    14    31    1
    34    15    32    1
    35    16    33    1
    36    19    34    1
    37    20    35    1
    38    21    36    1
