@<TRIPOS>MOLECULE
*****
 136 143 0 0 0
SMALL
GASTEIGER

@<TRIPOS>ATOM
      1 C           0.7267    5.5191    4.3315 C.3     1  UNL1        0.0788
      2 O           1.0331    6.2118    5.5235 O.3     1  UNL1       -0.4948
      3 C           2.3187    6.2841    5.9693 C.ar    1  UNL1        0.1253
      4 C           3.4534    5.9044    5.2746 C.ar    1  UNL1       -0.0084
      5 C           4.7338    5.7956    5.8983 C.ar    1  UNL1        0.0292
      6 C           5.8248    5.5451    4.9926 C.ar    1  UNL1        0.0099
      7 C           6.7375    4.4229    4.8606 C.ar    1  UNL1       -0.0006
      8 C           7.9241    4.5658    4.1680 C.ar    1  UNL1        0.0653
      9 C           8.9116    3.5966    4.2299 C.ar    1  UNL1        0.0405
     10 N           8.7800    2.4603    4.9178 N.ar    1  UNL1       -0.2625
     11 C           7.6654    2.3940    5.6353 C.ar    1  UNL1        0.0282
     12 C           6.6099    3.3005    5.6282 C.ar    1  UNL1       -0.0351
     13 C           6.1041    6.6715    4.3249 C.ar    1  UNL1        0.0160
     14 N           7.2064    6.7882    3.5480 N.ar    1  UNL1       -0.3171
     15 C           7.3793    7.9731    2.7655 C.3     1  UNL1        0.0147
     16 C           8.2015    5.8027    3.4265 C.ar    1  UNL1        0.2603
     17 O           9.1931    5.8964    2.7924 O.2     1  UNL1       -0.2670
     18 C           4.9496    6.1782    7.2167 C.ar    1  UNL1        0.1284
     19 O           5.9968    5.7404    8.0604 O.3     1  UNL1       -0.4945
     20 C           7.3061    5.4351    7.5769 C.3     1  UNL1        0.0788
     21 C           3.7936    6.7316    7.8737 C.ar    1  UNL1       -0.0115
     22 C           2.4500    6.6445    7.3090 C.ar    1  UNL1        0.0117
     23 C           1.1941    6.2996    8.1383 C.3     1  UNL1        0.0277
     24 N           1.4169    4.9592    8.5405 N.3     1  UNL1       -0.2956
     25 C           1.2680    4.0145    7.4030 C.3     1  UNL1        0.0120
     26 C           2.7742    3.2432    7.0698 C.3     1  UNL1        0.0118
     27 N           4.0252    3.2271    8.0185 N.3     1  UNL1       -0.2977
     28 C           4.6127    2.1188    8.7830 C.3     1  UNL1        0.0224
     29 C           3.6771    1.8369    9.8937 C.3     1  UNL1        0.0605
     30 O           2.1887    1.7427    9.7541 O.3     1  UNL1       -0.3752
     31 C           1.0715    2.3461    9.2365 C.3     1  UNL1        0.0818
     32 C           0.6147    3.1356   10.3992 C.3     1  UNL1        0.1128
     33 O           1.6308    3.1338   11.4042 O.3     1  UNL1       -0.4893
     34 C           2.1581    1.9314   11.9099 C.ar    1  UNL1        0.1259
     35 C           3.0946    2.4694   12.8040 C.ar    1  UNL1       -0.0113
     36 C           3.9157    1.5224   13.3068 C.ar    1  UNL1       -0.0061
     37 C           4.8561    1.9337   14.3067 C.ar    1  UNL1        0.0418
     38 C           6.2100    1.7132   14.3320 C.ar    1  UNL1        0.0531
     39 C           6.9988    1.0362   13.2582 C.3     1  UNL1       -0.0212
     40 N           6.8094    2.1454   15.5015 N.ar    1  UNL1       -0.2520
     41 C           5.9011    2.7060   16.2749 C.ar    1  UNL1        0.0655
     42 S           4.3046    2.7649   15.6924 S.2     1  UNL1       -0.0752
     43 C           3.9219    0.1468   12.8494 C.ar    1  UNL1       -0.0529
     44 C           3.1652   -0.4122   11.7989 C.ar    1  UNL1       -0.0530
     45 C           2.1923    0.3779   11.2573 C.ar    1  UNL1        0.0113
     46 C           1.9942   -0.1927    9.4404 C.3     1  UNL1        0.0403
     47 N           3.1464   -0.0896    8.4649 N.am    1  UNL1       -0.3095
     48 C           3.5310   -1.2609    7.9521 C.2     1  UNL1        0.2339
     49 C           4.5041   -1.0347    6.7426 C.3     1  UNL1        0.1047
     50 C           5.8895   -0.9873    7.2471 C.3     1  UNL1        0.0018
     51 C           6.5746   -0.5871    5.9658 C.3     1  UNL1        0.0731
     52 O           6.6524   -1.6966    5.0760 O.3     1  UNL1       -0.3902
     53 C           5.6972    0.5157    5.3270 C.3     1  UNL1        0.0416
     54 N           4.3585    0.2037    5.6231 N.am    1  UNL1       -0.2858
     55 C           3.3891    0.8155    4.6798 C.2     1  UNL1        0.2371
     56 C           1.7621    0.4369    4.6532 C.3     1  UNL1        0.1045
     57 C           1.2885   -0.9708    5.0943 C.3     1  UNL1       -0.0108
     58 C           2.4872   -1.3735    5.7180 C.3     1  UNL1       -0.0579
     59 C           0.2882   -0.9840    6.2538 C.3     1  UNL1       -0.0579
     60 C           1.3613   -2.1697    4.1643 C.3     1  UNL1       -0.0579
     61 N           1.2273    0.5758    3.3289 N.am    1  UNL1       -0.3009
     62 C           0.0480    1.1632    3.1224 C.2     1  UNL1        0.2508
     63 C          -0.6456    0.9477    1.8435 C.3     1  UNL1        0.1868
     64 F          -2.0230    1.1208    1.8590 F       1  UNL1       -0.2320
     65 C           0.0893    1.4012    0.5969 C.3     1  UNL1       -0.0068
     66 C          -0.1903   -0.0623    0.8016 C.3     1  UNL1       -0.0068
     67 O          -0.5052    1.9265    4.0246 O.2     1  UNL1       -0.2723
     68 O           3.7449    1.7316    3.9114 O.2     1  UNL1       -0.2735
     69 O           2.9670   -2.2260    8.3122 O.2     1  UNL1       -0.2738
     70 C           3.8030    4.2489    9.1470 C.3     1  UNL1        0.0118
     71 C           2.4855    4.9236    9.5891 C.3     1  UNL1        0.0120
     72 H          -0.2647    5.8702    4.0386 H       1  UNL1        0.0660
     73 H           0.6683    4.4356    4.4833 H       1  UNL1        0.0660
     74 H           1.4261    5.7657    3.5381 H       1  UNL1        0.0660
     75 H           3.3775    5.5857    4.2416 H       1  UNL1        0.0661
     76 H           9.8832    3.7295    3.7795 H       1  UNL1        0.0837
     77 H           7.6399    1.5465    6.2909 H       1  UNL1        0.0830
     78 H           5.8266    3.2296    6.3828 H       1  UNL1        0.0639
     79 H           5.4595    7.5458    4.4221 H       1  UNL1        0.0816
     80 H           8.3242    8.4357    3.0489 H       1  UNL1        0.0457
     81 H           7.4042    7.6580    1.7216 H       1  UNL1        0.0457
     82 H           6.5495    8.6674    2.9249 H       1  UNL1        0.0457
     83 H           7.4174    4.4380    7.1881 H       1  UNL1        0.0660
     84 H           7.6124    6.1894    6.8600 H       1  UNL1        0.0660
     85 H           8.0615    5.3299    8.3647 H       1  UNL1        0.0660
     86 H           3.9161    6.7956    8.9624 H       1  UNL1        0.0658
     87 H           1.0028    6.8464    9.0607 H       1  UNL1        0.0477
     88 H           0.2176    6.2247    7.6247 H       1  UNL1        0.0477
     89 H           0.3325    3.5627    7.8301 H       1  UNL1        0.0439
     90 H           0.5947    3.9385    6.5067 H       1  UNL1        0.0439
     91 H           3.1034    3.9030    6.2947 H       1  UNL1        0.0439
     92 H           2.6522    2.3236    6.4941 H       1  UNL1        0.0439
     93 H           4.9631    1.2540    8.2412 H       1  UNL1        0.0449
     94 H           5.5273    2.3514    9.3709 H       1  UNL1        0.0449
     95 H           3.9480    0.8177   10.0323 H       1  UNL1        0.0572
     96 H           3.2057    2.7080    9.7266 H       1  UNL1        0.0572
     97 H           1.7475    2.6268    8.5188 H       1  UNL1        0.0594
     98 H           0.3822    1.8075    8.5165 H       1  UNL1        0.0594
     99 H           0.3334    4.1679   10.1663 H       1  UNL1        0.0720
    100 H          -0.2460    2.7996   10.9142 H       1  UNL1        0.0720
    101 H           3.2406    3.5611   12.9965 H       1  UNL1        0.0660
    102 H           7.8232    1.6681   12.9271 H       1  UNL1        0.0293
    103 H           7.3763    0.0794   13.6256 H       1  UNL1        0.0293
    104 H           6.4103    0.8164   12.3557 H       1  UNL1        0.0293
    105 H           6.1099    3.1215   17.2451 H       1  UNL1        0.0907
    106 H           4.6241   -0.5211   13.3234 H       1  UNL1        0.0624
    107 H           3.5296   -1.2674   11.2278 H       1  UNL1        0.0622
    108 H           0.9311   -0.3052    9.2105 H       1  UNL1        0.0513
    109 H           1.7922    0.5569    8.6449 H       1  UNL1        0.0513
    110 H           3.2559    0.7069    7.7779 H       1  UNL1        0.1491
    111 H           4.5100   -1.9802    6.1943 H       1  UNL1        0.0597
    112 H           6.0983   -1.9956    7.6117 H       1  UNL1        0.0313
    113 H           6.0182   -0.2996    8.0803 H       1  UNL1        0.0313
    114 H           7.5907   -0.3200    6.2308 H       1  UNL1        0.0610
    115 H           5.8190   -1.7469    4.5736 H       1  UNL1        0.2098
    116 H           5.6776    1.3941    5.9275 H       1  UNL1        0.0490
    117 H           5.9029    0.7239    4.2677 H       1  UNL1        0.0490
    118 H           1.3004    1.2039    5.3017 H       1  UNL1        0.0600
    119 H           2.5349   -0.4936    6.3547 H       1  UNL1        0.0236
    120 H           2.4870   -2.3094    6.2550 H       1  UNL1        0.0236
    121 H           3.2873   -1.4508    4.9528 H       1  UNL1        0.0236
    122 H          -0.7145   -0.8673    5.8723 H       1  UNL1        0.0236
    123 H           0.3698   -1.9106    6.8438 H       1  UNL1        0.0236
    124 H           0.4754   -0.1727    6.9761 H       1  UNL1        0.0236
    125 H           0.4941   -2.2147    3.5459 H       1  UNL1        0.0236
    126 H           2.2764   -2.1241    3.5375 H       1  UNL1        0.0236
    127 H           1.4828   -3.1011    4.7561 H       1  UNL1        0.0236
    128 H           1.5467   -0.1361    2.6680 H       1  UNL1        0.1496
    129 H          -0.4663    1.9355   -0.1607 H       1  UNL1        0.0302
    130 H           1.1029    1.7672    0.7223 H       1  UNL1        0.0302
    131 H           0.6307   -0.7380    0.9842 H       1  UNL1        0.0302
    132 H          -0.9661   -0.5185    0.1939 H       1  UNL1        0.0302
    133 H           4.0411    4.8909    8.4259 H       1  UNL1        0.0439
    134 H           4.6317    4.2906    9.8830 H       1  UNL1        0.0439
    135 H           2.7620    5.9041   10.0017 H       1  UNL1        0.0439
    136 H           2.0667    4.8289   10.5917 H       1  UNL1        0.0439
@<TRIPOS>BOND
     1     1     2    1
     2     2     3    1
     3     3     4   ar
     4     4     5   ar
     5     5     6    1
     6     6     7   ar
     7     7     8   ar
     8     8     9   ar
     9     9    10   ar
    10    10    11   ar
    11    11    12   ar
    12     7    12   ar
    13     6    13   ar
    14    13    14   ar
    15    14    15    1
    16    14    16   ar
    17     8    16   ar
    18    16    17    2
    19     5    18   ar
    20    18    19    1
    21    19    20    1
    22    18    21   ar
    23     3    22   ar
    24    21    22   ar
    25    22    23    1
    26    23    24    1
    27    24    25    1
    28    25    26    1
    29    26    27    1
    30    27    28    1
    31    28    29    1
    32    29    30    1
    33    30    31    1
    34    31    32    1
    35    32    33    1
    36    33    34    1
    37    34    35   ar
    38    35    36   ar
    39    36    37    1
    40    37    38   ar
    41    38    39    1
    42    38    40   ar
    43    40    41   ar
    44    41    42   ar
    45    37    42   ar
    46    36    43   ar
    47    43    44   ar
    48    44    45   ar
    49    34    45   ar
    50    45    46    1
    51    46    47    1
    52    47    48   am
    53    49    50    1
    54    50    51    1
    55    51    52    1
    56    51    53    1
    57    53    54    1
    58    49    54    1
    59    54    55   am
    60    57    58    1
    61    57    59    1
    62    57    60    1
    63    56    61    1
    64    61    62   am
    65    62    63    1
    66    63    64    1
    67    63    65    1
    68    65    66    1
    69    63    66    1
    70    62    67    2
    71    55    68    2
    72    48    69    2
    73    27    70    1
    74    70    71    1
    75    24    71    1
    76     1    72    1
    77     1    73    1
    78     1    74    1
    79     4    75    1
    80     9    76    1
    81    11    77    1
    82    12    78    1
    83    13    79    1
    84    15    80    1
    85    15    81    1
    86    15    82    1
    87    20    83    1
    88    20    84    1
    89    20    85    1
    90    21    86    1
    91    23    87    1
    92    23    88    1
    93    25    89    1
    94    25    90    1
    95    26    91    1
    96    26    92    1
    97    28    93    1
    98    28    94    1
    99    29    95    1
   100    29    96    1
   101    31    97    1
   102    31    98    1
   103    32    99    1
   104    32   100    1
   105    35   101    1
   106    39   102    1
   107    39   103    1
   108    39   104    1
   109    41   105    1
   110    43   106    1
   111    44   107    1
   112    46   108    1
   113    46   109    1
   114    47   110    1
   115    50   112    1
   116    50   113    1
   117    51   114    1
   118    52   115    1
   119    53   116    1
   120    53   117    1
   121    56   118    1
   122    58   119    1
   123    58   120    1
   124    58   121    1
   125    59   122    1
   126    59   123    1
   127    59   124    1
   128    60   125    1
   129    60   126    1
   130    60   127    1
   131    61   128    1
   132    65   129    1
   133    65   130    1
   134    66   131    1
   135    66   132    1
   136    70   133    1
   137    70   134    1
   138    71   135    1
   139    71   136    1
   140    49   111    1
   141    49    48    1
   142    56    57    1
   143    56    55    1
