@<TRIPOS>MOLECULE
*****
 84 87 0 0 0
SMALL
GASTEIGER

@<TRIPOS>ATOM
      1 C          -5.6670   -8.2408   -2.4683 C.3     1  UNL1       -0.0212
      2 C          -5.0891   -8.8799   -3.6553 C.ar    1  UNL1        0.0531
      3 C          -3.7171   -8.8642   -3.9301 C.ar    1  UNL1        0.0418
      4 S          -3.6497   -9.3401   -5.6345 S.2     1  UNL1       -0.0752
      5 C          -5.2811   -9.9699   -5.5634 C.ar    1  UNL1        0.0655
      6 N          -5.9398   -9.6002   -4.4908 N.ar    1  UNL1       -0.2520
      7 C          -2.5497   -8.4476   -2.9615 C.ar    1  UNL1       -0.0061
      8 C          -1.3890   -7.7998   -3.3123 C.ar    1  UNL1       -0.0529
      9 C          -0.2999   -7.6930   -2.3148 C.ar    1  UNL1       -0.0530
     10 C          -0.3422   -8.1969   -0.9210 C.ar    1  UNL1        0.0113
     11 C           0.8716   -8.0519   -0.0021 C.3     1  UNL1        0.0403
     12 N           2.1556   -8.4656   -0.5706 N.am    1  UNL1       -0.3095
     13 C           3.3339   -7.9431   -1.0118 C.2     1  UNL1        0.2339
     14 C           4.3812   -9.0580   -1.5425 C.3     1  UNL1        0.1047
     15 C           5.7778   -8.5220   -1.8979 C.3     1  UNL1        0.0018
     16 C           6.2564   -9.4891   -2.9800 C.3     1  UNL1        0.0731
     17 O           6.8065  -10.6789   -2.3981 O.3     1  UNL1       -0.3902
     18 C           4.9800   -9.7968   -3.7564 C.3     1  UNL1        0.0416
     19 N           3.9256   -9.7916   -2.7507 N.am    1  UNL1       -0.2858
     20 C           2.7918  -10.5472   -3.0152 C.2     1  UNL1        0.2371
     21 C           1.7782  -10.8784   -1.8788 C.3     1  UNL1        0.1045
     22 C           2.2776  -11.4784   -0.4631 C.3     1  UNL1       -0.0108
     23 C           3.2947  -12.4786   -0.9634 C.3     1  UNL1       -0.0579
     24 C           2.9363  -10.7067    0.7811 C.3     1  UNL1       -0.0579
     25 C           1.0722  -12.1200    0.2527 C.3     1  UNL1       -0.0579
     26 N           0.6939  -11.7485   -2.3551 N.am    1  UNL1       -0.3009
     27 C          -0.4397  -11.0924   -2.6907 C.2     1  UNL1        0.2508
     28 C          -1.7357  -11.7329   -2.6474 C.3     1  UNL1        0.1868
     29 F          -2.3484  -11.5849   -1.4495 F       1  UNL1       -0.2320
     30 C          -2.3985  -11.6434   -3.9831 C.3     1  UNL1       -0.0068
     31 C          -2.3089  -12.9247   -3.2581 C.3     1  UNL1       -0.0068
     32 O          -0.3683   -9.9889   -3.0089 O.2     1  UNL1       -0.2723
     33 O           2.5541  -10.9268   -4.1687 O.2     1  UNL1       -0.2735
     34 O           3.5578   -6.7434   -0.9787 O.2     1  UNL1       -0.2738
     35 C          -1.4732   -8.9405   -0.5567 C.ar    1  UNL1        0.1257
     36 O          -1.5179   -9.7671    0.5890 O.3     1  UNL1       -0.4916
     37 C          -2.6043  -10.6923    1.0548 C.3     1  UNL1        0.0896
     38 C          -3.9491  -10.0032    1.3216 C.3     1  UNL1       -0.0183
     39 C          -4.6385   -9.5450    0.0625 C.3     1  UNL1       -0.0436
     40 C          -4.8288  -10.7359   -0.9424 C.3     1  UNL1        0.0029
     41 C          -5.9932  -11.5676   -0.6388 C.2     1  UNL1        0.1203
     42 H          -6.7470  -11.6379   -1.4329 H       1  UNL1        0.1026
     43 O          -6.0250  -12.2206    0.3976 O.2     1  UNL1       -0.3010
     44 C          -2.4421   -8.9825   -1.6102 C.ar    1  UNL1       -0.0114
     45 H          -6.1418   -7.3047   -2.7270 H       1  UNL1        0.0293
     46 H          -6.3651   -8.9011   -1.9493 H       1  UNL1        0.0293
     47 H          -4.8512   -7.9755   -1.8059 H       1  UNL1        0.0293
     48 H          -5.7671  -10.5707   -6.3407 H       1  UNL1        0.0907
     49 H          -1.1820   -7.7355   -4.3852 H       1  UNL1        0.0624
     50 H           0.7085   -7.6640   -2.7674 H       1  UNL1        0.0622
     51 H           0.9762   -7.0316    0.3253 H       1  UNL1        0.0513
     52 H           0.7198   -8.7117    0.8752 H       1  UNL1        0.0513
     53 H           2.2070   -9.4339   -0.5139 H       1  UNL1        0.1491
     54 H           4.6702   -9.8110   -0.8163 H       1  UNL1        0.0597
     55 H           6.4506   -8.5427   -1.0280 H       1  UNL1        0.0313
     56 H           5.7090   -7.4980   -2.2646 H       1  UNL1        0.0313
     57 H           7.0393   -9.0554   -3.6046 H       1  UNL1        0.0610
     58 H           6.0953  -11.2039   -1.9946 H       1  UNL1        0.2098
     59 H           4.7424   -9.0023   -4.4670 H       1  UNL1        0.0490
     60 H           5.0201  -10.7666   -4.2645 H       1  UNL1        0.0490
     61 H           1.3094   -9.9089   -1.8251 H       1  UNL1        0.0600
     62 H           4.1221  -11.9489   -1.4428 H       1  UNL1        0.0236
     63 H           3.7076  -13.0665   -0.1570 H       1  UNL1        0.0236
     64 H           2.8414  -13.1177   -1.7272 H       1  UNL1        0.0236
     65 H           2.2317  -10.0711    1.3362 H       1  UNL1        0.0236
     66 H           3.3682  -11.3706    1.5327 H       1  UNL1        0.0236
     67 H           3.7536  -10.0451    0.5628 H       1  UNL1        0.0236
     68 H           0.3889  -11.3369    0.6018 H       1  UNL1        0.0236
     69 H           0.5007  -12.8089   -0.3668 H       1  UNL1        0.0236
     70 H           1.4074  -12.6799    1.1260 H       1  UNL1        0.0236
     71 H           0.7446  -12.7224   -2.5628 H       1  UNL1        0.1496
     72 H          -3.4142  -11.3132   -4.0715 H       1  UNL1        0.0302
     73 H          -1.7146  -11.2711   -4.7483 H       1  UNL1        0.0302
     74 H          -1.5475  -13.6675   -3.2121 H       1  UNL1        0.0302
     75 H          -3.2703  -13.1659   -2.7949 H       1  UNL1        0.0302
     76 H          -2.6907  -11.6238    0.4785 H       1  UNL1        0.0696
     77 H          -2.3139  -11.1339    2.0298 H       1  UNL1        0.0696
     78 H          -4.6692  -10.6345    1.8448 H       1  UNL1        0.0298
     79 H          -3.7242   -9.1353    1.9461 H       1  UNL1        0.0298
     80 H          -5.5675   -8.9919    0.1910 H       1  UNL1        0.0270
     81 H          -4.0051   -8.6859   -0.1832 H       1  UNL1        0.0270
     82 H          -4.8081  -10.5223   -2.0123 H       1  UNL1        0.0339
     83 H          -4.0832  -11.5147   -0.8864 H       1  UNL1        0.0339
     84 H          -3.0958   -9.7785   -1.4392 H       1  UNL1        0.0660
@<TRIPOS>BOND
     1     1     2    1
     2     2     3   ar
     3     3     4   ar
     4     4     5   ar
     5     5     6   ar
     6     2     6   ar
     7     3     7    1
     8     7     8   ar
     9     8     9   ar
    10     9    10   ar
    11    10    11    1
    12    11    12    1
    13    12    13   am
    14    14    15    1
    15    15    16    1
    16    16    17    1
    17    16    18    1
    18    18    19    1
    19    14    19    1
    20    19    20   am
    21    22    23    1
    22    22    24    1
    23    22    25    1
    24    21    26    1
    25    26    27   am
    26    27    28    1
    27    28    29    1
    28    28    30    1
    29    30    31    1
    30    28    31    1
    31    27    32    2
    32    20    33    2
    33    13    34    2
    34    10    35   ar
    35    35    36    1
    36    36    37    1
    37    37    38    1
    38    38    39    1
    39    39    40    1
    40    40    41    1
    41    41    42    1
    42    41    43    2
    43    35    44   ar
    44     7    44   ar
    45     1    45    1
    46     1    46    1
    47     1    47    1
    48     5    48    1
    49     8    49    1
    50     9    50    1
    51    11    51    1
    52    11    52    1
    53    12    53    1
    54    15    55    1
    55    15    56    1
    56    16    57    1
    57    17    58    1
    58    18    59    1
    59    18    60    1
    60    21    61    1
    61    23    62    1
    62    23    63    1
    63    23    64    1
    64    24    65    1
    65    24    66    1
    66    24    67    1
    67    25    68    1
    68    25    69    1
    69    25    70    1
    70    26    71    1
    71    30    72    1
    72    30    73    1
    73    31    74    1
    74    31    75    1
    75    37    76    1
    76    37    77    1
    77    38    78    1
    78    38    79    1
    79    39    80    1
    80    39    81    1
    81    40    82    1
    82    40    83    1
    83    44    84    1
    84    14    54    1
    85    14    13    1
    86    21    22    1
    87    21    20    1
