@<TRIPOS>MOLECULE
*****
 93 96 0 0 0
SMALL
GASTEIGER

@<TRIPOS>ATOM
      1 C           0.8302    0.2634   -0.8142 C.3     1  UNL1        0.0788
      2 O           0.3122    1.5806   -0.5702 O.3     1  UNL1       -0.4947
      3 C           0.8585    2.5252    0.2962 C.ar    1  UNL1        0.1285
      4 C           2.2084    2.6345    0.7237 C.ar    1  UNL1       -0.0116
      5 C           2.7058    3.6121    1.6961 C.ar    1  UNL1       -0.0090
      6 C           4.0984    3.7609    2.3215 C.ar    1  UNL1        0.0065
      7 C           5.0361    3.5755    1.3820 C.ar    1  UNL1        0.0159
      8 N           6.3803    3.5655    1.6484 N.ar    1  UNL1       -0.3171
      9 C           7.3189    3.5729    0.5631 C.3     1  UNL1        0.0147
     10 C           6.9125    3.6293    2.9171 C.ar    1  UNL1        0.2603
     11 C           5.9835    3.7645    4.0095 C.ar    1  UNL1        0.0653
     12 C           4.6614    4.1030    3.7404 C.ar    1  UNL1       -0.0007
     13 C           4.0496    4.6232    4.9017 C.ar    1  UNL1       -0.0351
     14 C           4.6103    4.2649    6.2234 C.ar    1  UNL1        0.0282
     15 N           5.8399    3.8205    6.4302 N.ar    1  UNL1       -0.2625
     16 C           6.5257    3.7317    5.3061 C.ar    1  UNL1        0.0405
     17 O           8.1198    3.6311    3.1767 O.2     1  UNL1       -0.2670
     18 C           1.8475    4.6170    1.9894 C.ar    1  UNL1       -0.0116
     19 C           0.6073    4.6992    1.3334 C.ar    1  UNL1        0.1285
     20 O          -0.1681    5.8268    1.5179 O.3     1  UNL1       -0.4947
     21 C           0.3547    6.8538    2.3865 C.3     1  UNL1        0.0788
     22 C          -0.0019    3.5228    0.7828 C.ar    1  UNL1        0.0498
     23 C          -1.5322    3.2094    0.9339 C.3     1  UNL1        0.0311
     24 N          -2.3115    3.1755    2.2555 N.3     1  UNL1       -0.2950
     25 C          -2.2080    4.3882    3.1016 C.3     1  UNL1        0.0151
     26 C          -0.8972    4.5613    3.8565 C.3     1  UNL1        0.0275
     27 C          -1.9962    2.0608    3.1248 C.3     1  UNL1        0.0151
     28 C          -0.6290    2.3157    3.6537 C.3     1  UNL1        0.0275
     29 N          -0.4504    3.4710    4.6333 N.am    1  UNL1       -0.2972
     30 C           0.4952    3.8887    5.6548 C.2     1  UNL1        0.2414
     31 C           1.3094    3.0140    6.7866 C.3     1  UNL1        0.1239
     32 O           2.6282    2.4990    6.8963 O.3     1  UNL1       -0.3683
     33 C           3.1567    2.3851    5.6028 C.3     1  UNL1        0.0716
     34 C           2.4781    1.6836    4.5967 C.3     1  UNL1        0.0711
     35 O           1.1251    1.5933    4.7818 O.3     1  UNL1       -0.3752
     36 C           0.4522    0.6026    5.6853 C.3     1  UNL1        0.0711
     37 C           1.3229   -0.5005    6.3059 C.3     1  UNL1        0.0717
     38 O           2.7652   -0.4230    6.4132 O.3     1  UNL1       -0.3664
     39 C           3.6340   -0.8642    5.3408 C.3     1  UNL1        0.1445
     40 C           3.2996   -2.0509    4.4260 C.2     1  UNL1        0.3336
     41 O           2.8088   -1.7795    3.1522 O.3     1  UNL1       -0.4573
     42 C           2.4965   -0.5216    2.5743 C.3     1  UNL1        0.1053
     43 C           1.2801    0.0259    3.1984 C.3     1  UNL1       -0.0254
     44 C           3.7464    0.3542    2.2526 C.3     1  UNL1       -0.0254
     45 C           1.6745   -0.6782    1.3911 C.3     1  UNL1       -0.0254
     46 O           3.4474   -3.1495    4.7815 O.2     1  UNL1       -0.2482
     47 O           0.7169    5.1067    5.8079 O.2     1  UNL1       -0.2731
     48 H           0.5522   -0.2921   -1.7116 H       1  UNL1        0.0660
     49 H           0.2724   -0.3965   -0.1365 H       1  UNL1        0.0660
     50 H           1.9299    0.2221   -0.7476 H       1  UNL1        0.0660
     51 H           2.8705    1.8575    0.3614 H       1  UNL1        0.0660
     52 H           4.7629    3.4302    0.3376 H       1  UNL1        0.0816
     53 H           7.8929    4.5012    0.6369 H       1  UNL1        0.0457
     54 H           7.9864    2.7169    0.6811 H       1  UNL1        0.0457
     55 H           6.8076    3.5286   -0.3993 H       1  UNL1        0.0457
     56 H           2.9826    4.8715    4.8142 H       1  UNL1        0.0639
     57 H           4.0547    3.8295    7.0797 H       1  UNL1        0.0830
     58 H           7.5831    3.7189    5.4980 H       1  UNL1        0.0837
     59 H           2.1216    5.2919    2.7945 H       1  UNL1        0.0660
     60 H           0.6331    6.5422    3.4066 H       1  UNL1        0.0660
     61 H           1.2502    7.2917    1.9525 H       1  UNL1        0.0660
     62 H          -0.4467    7.5788    2.5210 H       1  UNL1        0.0660
     63 H          -2.0418    3.9249    0.2964 H       1  UNL1        0.0478
     64 H          -1.7195    2.2126    0.4981 H       1  UNL1        0.0478
     65 H          -2.4119    5.2458    2.4676 H       1  UNL1        0.0442
     66 H          -2.9369    4.3460    3.9154 H       1  UNL1        0.0442
     67 H          -0.1679    4.4470    3.1194 H       1  UNL1        0.0477
     68 H          -0.7298    5.5380    4.2751 H       1  UNL1        0.0477
     69 H          -2.6033    1.9602    4.0387 H       1  UNL1        0.0442
     70 H          -2.0149    1.0761    2.6260 H       1  UNL1        0.0442
     71 H           0.0367    2.4121    2.7979 H       1  UNL1        0.0477
     72 H          -0.5250    1.3437    4.0046 H       1  UNL1        0.0477
     73 H           0.6872    2.8300    7.6572 H       1  UNL1        0.0657
     74 H           1.1267    2.0871    6.4886 H       1  UNL1        0.0657
     75 H           2.7483    3.2118    5.0882 H       1  UNL1        0.0583
     76 H           4.2169    2.0761    5.4863 H       1  UNL1        0.0583
     77 H           2.9022    1.9699    3.6373 H       1  UNL1        0.0583
     78 H           2.8003    0.8339    4.9771 H       1  UNL1        0.0583
     79 H          -0.1183    1.1621    6.4438 H       1  UNL1        0.0583
     80 H          -0.5161    0.2594    5.2841 H       1  UNL1        0.0583
     81 H           0.9337   -0.5005    7.3223 H       1  UNL1        0.0583
     82 H           1.0690   -1.4207    5.7937 H       1  UNL1        0.0583
     83 H           3.7047   -0.2232    4.4896 H       1  UNL1        0.0676
     84 H           4.6633   -0.5359    5.5628 H       1  UNL1        0.0676
     85 H           1.5267   -0.2318    4.1743 H       1  UNL1        0.0268
     86 H           1.2034    1.0583    2.8450 H       1  UNL1        0.0268
     87 H           0.2528   -0.3769    3.2075 H       1  UNL1        0.0268
     88 H           4.2738    0.0445    1.3539 H       1  UNL1        0.0268
     89 H           3.4974    1.3685    2.0364 H       1  UNL1        0.0268
     90 H           4.4888    0.5046    3.0400 H       1  UNL1        0.0268
     91 H           2.2435   -1.1588    0.6331 H       1  UNL1        0.0268
     92 H           0.6961   -1.1724    1.5599 H       1  UNL1        0.0268
     93 H           1.4041    0.3608    1.1618 H       1  UNL1        0.0268
@<TRIPOS>BOND
     1     1     2    1
     2     2     3    1
     3     3     4   ar
     4     4     5   ar
     5     5     6    1
     6     6     7   ar
     7     7     8   ar
     8     8     9    1
     9     8    10   ar
    10    10    11   ar
    11    11    12   ar
    12     6    12   ar
    13    12    13   ar
    14    13    14   ar
    15    14    15   ar
    16    15    16   ar
    17    11    16   ar
    18    10    17    2
    19     5    18   ar
    20    18    19   ar
    21    19    20    1
    22    20    21    1
    23     3    22   ar
    24    19    22   ar
    25    22    23    1
    26    23    24    1
    27    24    25    1
    28    25    26    1
    29    24    27    1
    30    27    28    1
    31    28    29    1
    32    26    29    1
    33    29    30   am
    34    30    31    1
    35    31    32    1
    36    32    33    1
    37    33    34    1
    38    34    35    1
    39    35    36    1
    40    36    37    1
    41    37    38    1
    42    38    39    1
    43    39    40    1
    44    40    41    1
    45    41    42    1
    46    42    43    1
    47    42    44    1
    48    42    45    1
    49    40    46    2
    50    30    47    2
    51     1    48    1
    52     1    49    1
    53     1    50    1
    54     4    51    1
    55     7    52    1
    56     9    53    1
    57     9    54    1
    58     9    55    1
    59    13    56    1
    60    14    57    1
    61    16    58    1
    62    18    59    1
    63    21    60    1
    64    21    61    1
    65    21    62    1
    66    23    63    1
    67    23    64    1
    68    25    65    1
    69    25    66    1
    70    26    67    1
    71    26    68    1
    72    27    69    1
    73    27    70    1
    74    28    71    1
    75    28    72    1
    76    31    73    1
    77    31    74    1
    78    33    75    1
    79    33    76    1
    80    34    77    1
    81    34    78    1
    82    36    79    1
    83    36    80    1
    84    37    81    1
    85    37    82    1
    86    39    83    1
    87    39    84    1
    88    43    85    1
    89    43    86    1
    90    43    87    1
    91    44    88    1
    92    44    89    1
    93    44    90    1
    94    45    91    1
    95    45    92    1
    96    45    93    1
