@<TRIPOS>MOLECULE
*****
 55 58 0 0 0
SMALL
GASTEIGER

@<TRIPOS>ATOM
      1 O           0.9571    0.0572   -0.0489 O.2     1  UNL1       -0.2670
      2 C           2.1722    0.0239   -0.0456 C.ar    1  UNL1        0.2603
      3 N           2.9296   -1.1522   -0.1415 N.ar    1  UNL1       -0.3171
      4 C           4.3092   -1.1601   -0.1304 C.ar    1  UNL1        0.0159
      5 C           5.0512   -0.0405   -0.0376 C.ar    1  UNL1        0.0065
      6 C           6.5133   -0.1973   -0.0083 C.ar    1  UNL1       -0.0090
      7 C           7.2265    0.2694    1.0990 C.ar    1  UNL1       -0.0116
      8 C           8.6201    0.1796    1.1815 C.ar    1  UNL1        0.1285
      9 O           9.0624    0.7000    2.3724 O.3     1  UNL1       -0.4947
     10 C          10.4384    0.6672    2.6592 C.3     1  UNL1        0.0788
     11 C           9.3369   -0.3537    0.0879 C.ar    1  UNL1        0.0498
     12 C          10.8676   -0.2506   -0.0060 C.3     1  UNL1        0.0311
     13 N          11.4729    1.0398   -0.4768 N.3     1  UNL1       -0.2955
     14 C          10.8225    1.3629   -1.7476 C.3     1  UNL1        0.0118
     15 C           9.5547    2.2329   -1.5856 C.3     1  UNL1        0.0087
     16 N           9.8907    3.5607   -1.0638 N.3     1  UNL1       -0.3136
     17 C          10.4804    3.3606    0.2757 C.3     1  UNL1        0.0087
     18 C          11.6744    2.3426    0.2429 C.3     1  UNL1        0.0118
     19 C           8.5855   -0.8698   -1.0411 C.ar    1  UNL1        0.1285
     20 O           9.2902   -1.4168   -2.0937 O.3     1  UNL1       -0.4947
     21 C           8.5820   -1.8333   -3.2659 C.3     1  UNL1        0.0788
     22 C           7.1934   -0.7586   -1.0839 C.ar    1  UNL1       -0.0116
     23 C           4.3426    1.2499    0.0089 C.ar    1  UNL1       -0.0007
     24 C           5.0382    2.4590   -0.0539 C.ar    1  UNL1       -0.0351
     25 C           4.3149    3.6144   -0.2667 C.ar    1  UNL1        0.0282
     26 N           2.9694    3.6760   -0.1982 N.ar    1  UNL1       -0.2625
     27 C           2.3141    2.5055   -0.0023 C.ar    1  UNL1        0.0405
     28 C           2.9515    1.2789    0.0176 C.ar    1  UNL1        0.0653
     29 C           2.2028   -2.4044   -0.2368 C.3     1  UNL1        0.0147
     30 H           4.7810   -2.1382   -0.1949 H       1  UNL1        0.0816
     31 H           6.6903    0.7637    1.9090 H       1  UNL1        0.0660
     32 H          10.8427   -0.3424    2.7095 H       1  UNL1        0.0660
     33 H          10.9244    1.2156    1.8982 H       1  UNL1        0.0660
     34 H          10.6980    1.2240    3.5594 H       1  UNL1        0.0660
     35 H          11.3507   -0.7262    0.8536 H       1  UNL1        0.0478
     36 H          11.1792   -0.9853   -0.7650 H       1  UNL1        0.0478
     37 H          11.5690    1.8586   -2.3701 H       1  UNL1        0.0439
     38 H          10.5879    0.4545   -2.2955 H       1  UNL1        0.0439
     39 H           8.8008    1.8246   -0.9107 H       1  UNL1        0.0437
     40 H           9.0610    2.2938   -2.5551 H       1  UNL1        0.0437
     41 H          10.6255    3.9296   -1.6674 H       1  UNL1        0.1220
     42 H           9.7018    3.0526    0.9846 H       1  UNL1        0.0437
     43 H          10.8252    4.3425    0.6283 H       1  UNL1        0.0437
     44 H          12.1682    2.3056    1.2269 H       1  UNL1        0.0439
     45 H          12.4601    2.8605   -0.3290 H       1  UNL1        0.0439
     46 H           7.8981   -2.6574   -3.0379 H       1  UNL1        0.0660
     47 H           8.0498   -1.0026   -3.7466 H       1  UNL1        0.0660
     48 H           9.3145   -2.2053   -3.9909 H       1  UNL1        0.0660
     49 H           6.6172   -1.0588   -1.9560 H       1  UNL1        0.0660
     50 H           6.1205    2.5154   -0.0090 H       1  UNL1        0.0639
     51 H           4.8247    4.5321   -0.5454 H       1  UNL1        0.0830
     52 H           1.2372    2.5868    0.1099 H       1  UNL1        0.0837
     53 H           1.5644   -2.5068    0.6454 H       1  UNL1        0.0457
     54 H           1.5714   -2.3821   -1.1305 H       1  UNL1        0.0457
     55 H           2.8820   -3.2602   -0.2950 H       1  UNL1        0.0457
@<TRIPOS>BOND
     1     1     2    2
     2     2     3   ar
     3     3     4   ar
     4     4     5   ar
     5     5     6    1
     6     6     7   ar
     7     7     8   ar
     8     8     9    1
     9     9    10    1
    10     8    11   ar
    11    11    12    1
    12    12    13    1
    13    13    14    1
    14    14    15    1
    15    15    16    1
    16    16    17    1
    17    17    18    1
    18    13    18    1
    19    11    19   ar
    20    19    20    1
    21    20    21    1
    22    19    22   ar
    23     6    22   ar
    24     5    23   ar
    25    23    24   ar
    26    24    25   ar
    27    25    26   ar
    28    26    27   ar
    29    27    28   ar
    30    23    28   ar
    31     2    28   ar
    32     3    29    1
    33     4    30    1
    34     7    31    1
    35    10    32    1
    36    10    33    1
    37    10    34    1
    38    12    35    1
    39    12    36    1
    40    14    37    1
    41    14    38    1
    42    15    39    1
    43    15    40    1
    44    16    41    1
    45    17    42    1
    46    17    43    1
    47    18    44    1
    48    18    45    1
    49    21    46    1
    50    21    47    1
    51    21    48    1
    52    22    49    1
    53    24    50    1
    54    25    51    1
    55    27    52    1
    56    29    53    1
    57    29    54    1
    58    29    55    1
