@<TRIPOS>MOLECULE
*****
 141 148 0 0 0
SMALL
GASTEIGER

@<TRIPOS>ATOM
      1 C          -5.7068   -8.4419   -2.4551 C.3     1  UNL1       -0.0212
      2 C          -5.1980   -9.0716   -3.6820 C.ar    1  UNL1        0.0531
      3 C          -3.8675   -9.0514   -4.0704 C.ar    1  UNL1        0.0418
      4 S          -3.7875   -9.5583   -5.7394 S.2     1  UNL1       -0.0752
      5 C          -5.4259  -10.0816   -5.6111 C.ar    1  UNL1        0.0655
      6 N          -6.0809   -9.6750   -4.5485 N.ar    1  UNL1       -0.2520
      7 C          -2.7232   -8.7901   -3.1299 C.ar    1  UNL1       -0.0061
      8 C          -1.4814   -7.9712   -3.4871 C.ar    1  UNL1       -0.0529
      9 C          -0.2834   -7.9523   -2.4758 C.ar    1  UNL1       -0.0530
     10 C          -0.3819   -8.7897   -1.0858 C.ar    1  UNL1        0.0113
     11 C           0.7878   -8.7595   -0.1162 C.3     1  UNL1        0.0403
     12 N           2.1729   -9.1286   -0.2172 N.am    1  UNL1       -0.3095
     13 C           3.1551   -8.4909   -0.7141 C.2     1  UNL1        0.2339
     14 C           4.7097   -9.4606   -1.0781 C.3     1  UNL1        0.1047
     15 C           6.3923   -8.8750   -2.1370 C.3     1  UNL1        0.0018
     16 C           6.9785   -9.7352   -3.0707 C.3     1  UNL1        0.0731
     17 O           7.4984  -10.8461   -2.4966 O.3     1  UNL1       -0.3902
     18 C           5.6318   -9.9358   -3.4577 C.3     1  UNL1        0.0416
     19 N           4.2036  -10.1590   -2.0789 N.am    1  UNL1       -0.2858
     20 C           2.5041  -10.6812   -2.5087 C.2     1  UNL1        0.2371
     21 C           1.3907  -10.8170   -1.5791 C.3     1  UNL1        0.1045
     22 C           1.8692  -11.5054   -0.2445 C.3     1  UNL1       -0.0108
     23 C           2.5986  -12.6017   -0.8130 C.3     1  UNL1       -0.0579
     24 C           2.8120  -10.8658    0.9952 C.3     1  UNL1       -0.0579
     25 C           0.7972  -12.1895    0.4465 C.3     1  UNL1       -0.0579
     26 N           0.3092  -11.5916   -2.0972 N.am    1  UNL1       -0.3009
     27 C          -0.7232  -11.0693   -2.6506 C.2     1  UNL1        0.2508
     28 C          -1.9242  -11.7897   -2.6709 C.3     1  UNL1        0.1868
     29 F          -2.6163  -11.9213   -1.4816 F       1  UNL1       -0.2320
     30 C          -2.4294  -11.6628   -4.0671 C.3     1  UNL1       -0.0068
     31 C          -2.3655  -12.9406   -3.3647 C.3     1  UNL1       -0.0068
     32 O          -0.7486   -9.9637   -3.0590 O.2     1  UNL1       -0.2723
     33 O           2.0107  -11.0621   -3.6117 O.2     1  UNL1       -0.2735
     34 O           2.4101   -7.6476   -1.1591 O.2     1  UNL1       -0.2738
     35 C          -1.5651   -9.7447   -0.8055 C.ar    1  UNL1        0.1259
     36 O          -1.5962  -10.7254    0.2339 O.3     1  UNL1       -0.4893
     37 C          -2.8194  -11.1041    0.9448 C.3     1  UNL1        0.1128
     38 C          -4.0709  -10.1592    1.0892 C.3     1  UNL1        0.0817
     39 O          -4.5200   -9.1404    0.1758 O.3     1  UNL1       -0.3764
     40 C          -3.5338   -8.1904   -0.1517 C.3     1  UNL1        0.0478
     41 C          -2.8457   -7.1727    0.5942 C.3     1  UNL1       -0.0290
     42 C          -2.4375   -7.7442    1.9739 C.3     1  UNL1       -0.0427
     43 C          -1.2500   -8.6725    2.1778 C.3     1  UNL1        0.0240
     44 C          -0.1524   -7.7447    1.9429 C.2     1  UNL1        0.2133
     45 N           1.0449   -8.1738    2.5000 N.am    1  UNL1       -0.3100
     46 C           2.2920   -7.5807    2.0963 C.3     1  UNL1        0.0485
     47 C           2.1564   -6.1431    2.3082 C.3     1  UNL1        0.0189
     48 N           3.6675   -6.0911    2.5273 N.3     1  UNL1       -0.2943
     49 C           4.5857   -5.6519    1.4403 C.3     1  UNL1        0.0311
     50 C           4.7121   -6.2728    0.1360 C.ar    1  UNL1        0.0498
     51 C           5.7296   -7.0848    0.0710 C.ar    1  UNL1        0.1285
     52 O           6.7114   -7.7026    0.7797 O.3     1  UNL1       -0.4947
     53 C           7.1126   -6.9857    1.8854 C.3     1  UNL1        0.0788
     54 C           5.3228   -7.6095   -1.0903 C.ar    1  UNL1       -0.0116
     55 C           4.3445   -7.8654   -2.6422 C.ar    1  UNL1       -0.0090
     56 C           3.8140   -9.5143   -3.6513 C.ar    1  UNL1        0.0065
     57 C           4.3509  -11.4348   -3.3105 C.ar    1  UNL1       -0.0007
     58 C           3.9839  -12.4414   -4.0937 C.ar    1  UNL1        0.0653
     59 C           4.1571  -13.7083   -3.4567 C.ar    1  UNL1        0.0405
     60 N           4.5415  -14.2008   -2.1178 N.ar    1  UNL1       -0.2625
     61 C           5.0286  -13.3621   -1.2408 C.ar    1  UNL1        0.0282
     62 C           5.0902  -12.1022   -1.7974 C.ar    1  UNL1       -0.0351
     63 C           3.2807   -9.3353   -4.8553 C.ar    1  UNL1        0.0159
     64 N           3.2828  -10.4630   -5.6109 N.ar    1  UNL1       -0.3171
     65 C           2.7906  -10.0932   -6.8575 C.3     1  UNL1        0.0147
     66 C           3.4711  -11.9098   -5.3365 C.ar    1  UNL1        0.2603
     67 O           3.2064  -12.8217   -6.1130 O.2     1  UNL1       -0.2670
     68 C           3.5992   -6.7372   -2.5806 C.ar    1  UNL1       -0.0116
     69 C           3.7482   -5.9207   -1.1046 C.ar    1  UNL1        0.1285
     70 O           2.5028   -5.4025   -0.5717 O.3     1  UNL1       -0.4947
     71 C           2.5087   -4.3718    0.4200 C.3     1  UNL1        0.0788
     72 C           3.5840   -7.5524    2.8235 C.3     1  UNL1        0.0189
     73 O          -0.3163   -6.8263    1.1382 O.2     1  UNL1       -0.2758
     74 C          -2.7712   -9.6650   -1.8093 C.ar    1  UNL1       -0.0113
     75 H          -6.0783   -7.4522   -2.6895 H       1  UNL1        0.0293
     76 H          -6.3641   -9.0633   -1.8538 H       1  UNL1        0.0293
     77 H          -4.9276   -8.1726   -1.7945 H       1  UNL1        0.0293
     78 H          -5.9086  -10.6455   -6.3958 H       1  UNL1        0.0907
     79 H          -1.3205   -7.7625   -4.5824 H       1  UNL1        0.0624
     80 H           0.7658   -7.9264   -2.9634 H       1  UNL1        0.0622
     81 H           0.9173   -7.7088    0.0315 H       1  UNL1        0.0513
     82 H           0.5970   -9.4177    0.7122 H       1  UNL1        0.0513
     83 H           2.5533   -9.8851   -0.6768 H       1  UNL1        0.1491
     84 H           5.0172   -9.9315   -0.1592 H       1  UNL1        0.0597
     85 H           7.2647   -8.5176   -1.5555 H       1  UNL1        0.0313
     86 H           6.3214   -7.8067   -2.7221 H       1  UNL1        0.0313
     87 H           7.5400   -9.1777   -3.8296 H       1  UNL1        0.0610
     88 H           6.7219  -11.1987   -2.0605 H       1  UNL1        0.2098
     89 H           5.5035   -9.0247   -4.1964 H       1  UNL1        0.0490
     90 H           5.6670  -10.6425   -4.3336 H       1  UNL1        0.0490
     91 H           1.2416   -9.7734   -1.8986 H       1  UNL1        0.0600
     92 H           3.2664  -11.9823   -1.2989 H       1  UNL1        0.0236
     93 H           3.1071  -13.0317    0.0103 H       1  UNL1        0.0236
     94 H           2.2185  -13.2021   -1.6425 H       1  UNL1        0.0236
     95 H           2.2602  -10.1379    1.5913 H       1  UNL1        0.0236
     96 H           3.3906  -11.4687    1.6651 H       1  UNL1        0.0236
     97 H           3.6281  -10.2631    0.6571 H       1  UNL1        0.0236
     98 H           0.2481  -11.3790    0.8619 H       1  UNL1        0.0236
     99 H           0.2905  -12.8176   -0.2858 H       1  UNL1        0.0236
    100 H           1.2890  -12.7553    1.2245 H       1  UNL1        0.0236
    101 H           0.4325  -12.4083   -2.6341 H       1  UNL1        0.1496
    102 H          -3.4294  -11.3207   -4.1452 H       1  UNL1        0.0302
    103 H          -1.6843  -11.1841   -4.7276 H       1  UNL1        0.0302
    104 H          -1.5483  -13.5719   -3.1106 H       1  UNL1        0.0302
    105 H          -3.3374  -13.1141   -2.8803 H       1  UNL1        0.0302
    106 H          -3.1278  -12.0624    0.5309 H       1  UNL1        0.0720
    107 H          -2.5260  -11.3569    1.9992 H       1  UNL1        0.0720
    108 H          -4.9240  -10.7816    1.3342 H       1  UNL1        0.0594
    109 H          -3.9771   -9.6227    2.0027 H       1  UNL1        0.0594
    110 H          -2.7521   -8.7936    0.1161 H       1  UNL1        0.0560
    111 H          -3.4052   -7.8288   -1.1875 H       1  UNL1        0.0560
    112 H          -2.0239   -6.8737   -0.1057 H       1  UNL1        0.0287
    113 H          -3.6143   -6.4304    0.5589 H       1  UNL1        0.0287
    114 H          -2.2117   -6.8688    2.5423 H       1  UNL1        0.0271
    115 H          -3.2647   -8.1960    2.4652 H       1  UNL1        0.0271
    116 H          -1.1138   -9.2452    3.0931 H       1  UNL1        0.0358
    117 H          -1.1414   -9.4710    1.4995 H       1  UNL1        0.0358
    118 H           1.0209   -8.8398    3.2412 H       1  UNL1        0.1491
    119 H           2.6005   -7.6939    1.0931 H       1  UNL1        0.0523
    120 H           1.5097   -5.9106    1.4430 H       1  UNL1        0.0445
    121 H           1.5353   -5.7298    3.1054 H       1  UNL1        0.0445
    122 H           4.6259   -4.6598    0.9987 H       1  UNL1        0.0478
    123 H           5.5467   -5.4904    1.8893 H       1  UNL1        0.0478
    124 H           7.2684   -5.9746    1.5152 H       1  UNL1        0.0660
    125 H           6.3236   -7.1460    2.6169 H       1  UNL1        0.0660
    126 H           8.0551   -7.3134    2.3025 H       1  UNL1        0.0660
    127 H           6.0222   -8.5948   -0.5209 H       1  UNL1        0.0660
    128 H           3.9948  -14.5657   -4.0774 H       1  UNL1        0.0837
    129 H           4.9171  -13.5404   -0.1294 H       1  UNL1        0.0830
    130 H           5.3333  -11.4919   -0.8718 H       1  UNL1        0.0639
    131 H           3.0861   -8.2925   -5.0525 H       1  UNL1        0.0816
    132 H           3.5756  -10.4366   -7.5112 H       1  UNL1        0.0457
    133 H           1.8071  -10.5419   -6.8624 H       1  UNL1        0.0457
    134 H           2.7208   -8.9947   -6.8820 H       1  UNL1        0.0457
    135 H           2.6077   -7.1446   -2.9464 H       1  UNL1        0.0660
    136 H           2.8474   -4.5435    1.4325 H       1  UNL1        0.0660
    137 H           3.2492   -3.6385    0.1976 H       1  UNL1        0.0660
    138 H           1.5023   -4.1012    0.7484 H       1  UNL1        0.0660
    139 H           3.4087   -7.7793    3.8668 H       1  UNL1        0.0445
    140 H           4.3635   -8.2076    2.4141 H       1  UNL1        0.0445
    141 H          -3.7146  -10.2793   -1.5653 H       1  UNL1        0.0660
@<TRIPOS>BOND
     1     1     2    1
     2     2     3   ar
     3     3     4   ar
     4     4     5   ar
     5     5     6   ar
     6     2     6   ar
     7     3     7    1
     8     7     8   ar
     9     8     9   ar
    10     9    10   ar
    11    10    11    1
    12    11    12    1
    13    12    13   am
    14    14    15    1
    15    15    16    1
    16    16    17    1
    17    16    18    1
    18    18    19    1
    19    14    19    1
    20    19    20   am
    21    22    23    1
    22    22    24    1
    23    22    25    1
    24    21    26    1
    25    26    27   am
    26    27    28    1
    27    28    29    1
    28    28    30    1
    29    30    31    1
    30    28    31    1
    31    27    32    2
    32    20    33    2
    33    13    34    2
    34    10    35   ar
    35    35    36    1
    36    36    37    1
    37    37    38    1
    38    38    39    1
    39    39    40    1
    40    40    41    1
    41    41    42    1
    42    42    43    1
    43    43    44    1
    44    44    45   am
    45    45    46    1
    46    46    47    1
    47    47    48    1
    48    48    49    1
    49    49    50    1
    50    50    51   ar
    51    51    52    1
    52    52    53    1
    53    51    54   ar
    54    54    55   ar
    55    55    56    1
    56    56    57   ar
    57    57    58   ar
    58    58    59   ar
    59    59    60   ar
    60    60    61   ar
    61    61    62   ar
    62    57    62   ar
    63    56    63   ar
    64    63    64   ar
    65    64    65    1
    66    64    66   ar
    67    58    66   ar
    68    66    67    2
    69    55    68   ar
    70    68    69   ar
    71    50    69   ar
    72    69    70    1
    73    70    71    1
    74    48    72    1
    75    46    72    1
    76    44    73    2
    77    35    74   ar
    78     7    74   ar
    79     1    75    1
    80     1    76    1
    81     1    77    1
    82     5    78    1
    83     8    79    1
    84     9    80    1
    85    11    81    1
    86    11    82    1
    87    12    83    1
    88    15    85    1
    89    15    86    1
    90    16    87    1
    91    17    88    1
    92    18    89    1
    93    18    90    1
    94    21    91    1
    95    23    92    1
    96    23    93    1
    97    23    94    1
    98    24    95    1
    99    24    96    1
   100    24    97    1
   101    25    98    1
   102    25    99    1
   103    25   100    1
   104    26   101    1
   105    30   102    1
   106    30   103    1
   107    31   104    1
   108    31   105    1
   109    37   106    1
   110    37   107    1
   111    38   108    1
   112    38   109    1
   113    40   110    1
   114    40   111    1
   115    41   112    1
   116    41   113    1
   117    42   114    1
   118    42   115    1
   119    43   116    1
   120    43   117    1
   121    45   118    1
   122    46   119    1
   123    47   120    1
   124    47   121    1
   125    49   122    1
   126    49   123    1
   127    53   124    1
   128    53   125    1
   129    53   126    1
   130    54   127    1
   131    59   128    1
   132    61   129    1
   133    62   130    1
   134    63   131    1
   135    65   132    1
   136    65   133    1
   137    65   134    1
   138    68   135    1
   139    71   136    1
   140    71   137    1
   141    71   138    1
   142    72   139    1
   143    72   140    1
   144    74   141    1
   145    14    84    1
   146    14    13    1
   147    21    22    1
   148    21    20    1
