@<TRIPOS>MOLECULE
*****
 158 165 0 0 0
SMALL
GASTEIGER

@<TRIPOS>ATOM
      1 C           0.8243   -2.6328   -0.6574 C.3     1  UNL1        0.0788
      2 O           0.5680   -3.3557   -1.8925 O.3     1  UNL1       -0.4947
      3 C           0.7835   -2.5355   -3.0024 C.ar    1  UNL1        0.1285
      4 C           0.3215   -2.7514   -4.2792 C.ar    1  UNL1       -0.0116
      5 C           1.0326   -2.3931   -5.6113 C.ar    1  UNL1       -0.0090
      6 C           0.5695   -2.9826   -6.9195 C.ar    1  UNL1        0.0065
      7 C          -0.5682   -2.2801   -7.3137 C.ar    1  UNL1       -0.0007
      8 C          -1.0868   -2.5466   -8.5294 C.ar    1  UNL1        0.0653
      9 C          -2.1419   -1.7760   -8.8152 C.ar    1  UNL1        0.0405
     10 N          -2.4406   -0.6343   -8.1382 N.ar    1  UNL1       -0.2625
     11 C          -1.7558   -0.3480   -7.0291 C.ar    1  UNL1        0.0282
     12 C          -1.0198   -1.2844   -6.4481 C.ar    1  UNL1       -0.0351
     13 C           1.0071   -3.9586   -7.7737 C.ar    1  UNL1        0.0159
     14 N           0.5323   -4.2430   -8.9956 N.ar    1  UNL1       -0.3171
     15 C           1.1663   -5.2736   -9.8049 C.3     1  UNL1        0.0147
     16 C          -0.5602   -3.5709   -9.4361 C.ar    1  UNL1        0.2603
     17 O          -1.0854   -3.7788  -10.5160 O.2     1  UNL1       -0.2670
     18 C           2.0857   -1.5717   -5.8270 C.ar    1  UNL1       -0.0116
     19 C           2.6710   -1.2148   -4.5855 C.ar    1  UNL1        0.1285
     20 O           4.5196   -1.3382   -4.6757 O.3     1  UNL1       -0.4947
     21 C           6.1038   -1.2676   -4.0369 C.3     1  UNL1        0.0788
     22 C           1.9117   -1.7748   -3.0666 C.ar    1  UNL1        0.0498
     23 C           2.8993   -2.4471   -1.7393 C.3     1  UNL1        0.0311
     24 N           3.7060   -3.6167   -2.1205 N.3     1  UNL1       -0.2955
     25 C           2.9727   -5.1406   -1.8960 C.3     1  UNL1        0.0120
     26 C           2.6037   -5.8131   -3.7242 C.3     1  UNL1        0.0118
     27 N           4.1568   -5.4703   -4.9466 N.3     1  UNL1       -0.2977
     28 C           4.9817   -6.4167   -5.6345 C.3     1  UNL1        0.0224
     29 C           5.6458   -7.0580   -4.5322 C.3     1  UNL1        0.0605
     30 O           5.2947   -7.5827   -3.2951 O.3     1  UNL1       -0.3762
     31 C           4.5491   -6.8052   -2.5533 C.3     1  UNL1        0.0711
     32 C           5.3162   -5.2241   -2.5371 C.3     1  UNL1        0.0711
     33 O           6.4353   -4.8724   -3.6457 O.3     1  UNL1       -0.3752
     34 C           7.7351   -5.3467   -3.6532 C.3     1  UNL1        0.0711
     35 C           7.5707   -5.6424   -2.1830 C.3     1  UNL1        0.0711
     36 O           6.7364   -5.9659   -0.9569 O.3     1  UNL1       -0.3752
     37 C           6.1949   -4.9019    0.0329 C.3     1  UNL1        0.0711
     38 C           6.9574   -3.7576   -0.4548 C.3     1  UNL1        0.0711
     39 O           8.3230   -3.1125   -1.1033 O.3     1  UNL1       -0.3742
     40 C           9.2862   -3.9006   -1.5800 C.3     1  UNL1        0.0818
     41 C           9.6568   -4.2285   -0.1948 C.3     1  UNL1        0.1128
     42 O           8.5484   -4.4097    0.9992 O.3     1  UNL1       -0.4893
     43 C           7.7551   -2.9576    1.6523 C.ar    1  UNL1        0.1259
     44 C           7.0970   -3.5062    2.6878 C.ar    1  UNL1       -0.0113
     45 C           5.8778   -2.8324    2.9394 C.ar    1  UNL1       -0.0061
     46 C           5.3242   -3.0823    4.1962 C.ar    1  UNL1        0.0418
     47 C           4.0729   -3.5731    4.4223 C.ar    1  UNL1        0.0531
     48 C           3.0305   -3.8664    3.3970 C.3     1  UNL1       -0.0212
     49 N           3.8696   -3.8341    5.7470 N.ar    1  UNL1       -0.2520
     50 C           4.9466   -3.4909    6.4265 C.ar    1  UNL1        0.0655
     51 S           6.2510   -2.8133    5.5812 S.2     1  UNL1       -0.0752
     52 C           5.0807   -1.9053    2.1526 C.ar    1  UNL1       -0.0529
     53 C           5.5116   -1.4729    0.9625 C.ar    1  UNL1       -0.0530
     54 C           6.8958   -1.7561    0.6927 C.ar    1  UNL1        0.0113
     55 C           6.8048   -1.5680   -1.1313 C.3     1  UNL1        0.0403
     56 N           5.5995   -2.1759   -1.6551 N.am    1  UNL1       -0.3095
     57 C           4.5959   -1.6600   -2.5766 C.2     1  UNL1        0.2339
     58 C           3.7018   -2.7970   -4.1036 C.3     1  UNL1        0.1047
     59 C           2.9158   -3.9361   -4.1438 C.3     1  UNL1        0.0018
     60 C           2.5278   -4.8057   -5.7929 C.3     1  UNL1        0.0731
     61 O           1.1501   -4.9524   -5.7172 O.3     1  UNL1       -0.3902
     62 C           3.5391   -3.9764   -6.7613 C.3     1  UNL1        0.0416
     63 N           3.9426   -2.7292   -5.9876 N.am    1  UNL1       -0.2858
     64 C           4.6561   -1.5688   -6.7015 C.2     1  UNL1        0.2371
     65 C           5.0307    0.0373   -5.7642 C.3     1  UNL1        0.1045
     66 C           3.9869    1.0700   -5.8833 C.3     1  UNL1       -0.0108
     67 C           3.5348    0.7938   -7.2616 C.3     1  UNL1       -0.0579
     68 C           2.8393    1.1119   -4.8176 C.3     1  UNL1       -0.0579
     69 C           4.7804    2.2963   -5.6305 C.3     1  UNL1       -0.0579
     70 N           6.5040    0.2084   -5.6135 N.am    1  UNL1       -0.3022
     71 C           7.4845    0.3283   -4.4938 C.2     1  UNL1        0.2337
     72 C           8.8907    0.1543   -4.8421 C.3     1  UNL1        0.1329
     73 C           8.9394    0.5335   -6.1964 C.1     1  UNL1        0.0786
     74 N           8.6008    0.7881   -7.2737 N.1     1  UNL1       -0.1955
     75 C          10.0361   -0.6986   -4.3115 C.3     1  UNL1       -0.0241
     76 C           9.8808    0.7098   -3.8061 C.3     1  UNL1       -0.0241
     77 O           7.3143    0.4573   -3.2886 O.2     1  UNL1       -0.2741
     78 O           4.8871   -1.6541   -7.9111 O.2     1  UNL1       -0.2735
     79 O           4.4052   -0.4405   -2.4690 O.2     1  UNL1       -0.2738
     80 C           5.2801   -4.1194   -4.8915 C.3     1  UNL1        0.0118
     81 C           5.3205   -3.7354   -3.2320 C.3     1  UNL1        0.0120
     82 H           0.4675   -3.1803    0.1905 H       1  UNL1        0.0660
     83 H           0.7244   -1.5799   -0.8879 H       1  UNL1        0.0660
     84 H           1.7869   -2.5420   -0.1161 H       1  UNL1        0.0660
     85 H          -0.6046   -3.2970   -4.3868 H       1  UNL1        0.0660
     86 H          -2.7432   -2.0502   -9.6571 H       1  UNL1        0.0837
     87 H          -1.7555    0.6431   -6.6097 H       1  UNL1        0.0830
     88 H          -0.6958   -1.1333   -5.4224 H       1  UNL1        0.0639
     89 H           1.7620   -4.7129   -7.6353 H       1  UNL1        0.0816
     90 H           0.4217   -6.0485   -9.9834 H       1  UNL1        0.0457
     91 H           1.4733   -4.8162  -10.7469 H       1  UNL1        0.0457
     92 H           2.0505   -5.7261   -9.3296 H       1  UNL1        0.0457
     93 H           2.4916   -1.7409   -6.8564 H       1  UNL1        0.0660
     94 H           6.1824   -0.8615   -3.0440 H       1  UNL1        0.0660
     95 H           5.9436   -2.0669   -3.6477 H       1  UNL1        0.0660
     96 H           7.0704   -1.8640   -4.2546 H       1  UNL1        0.0660
     97 H           3.2987   -1.5856   -1.1906 H       1  UNL1        0.0478
     98 H           2.9130   -3.1256   -0.9027 H       1  UNL1        0.0478
     99 H           3.7149   -5.6517   -1.0595 H       1  UNL1        0.0439
    100 H           2.2023   -5.0876   -1.1135 H       1  UNL1        0.0439
    101 H           1.5524   -5.1203   -3.9273 H       1  UNL1        0.0439
    102 H           2.0564   -6.7087   -3.9754 H       1  UNL1        0.0439
    103 H           4.2168   -7.0033   -5.9901 H       1  UNL1        0.0449
    104 H           5.6971   -5.7422   -6.2424 H       1  UNL1        0.0449
    105 H           6.6215   -7.3634   -4.6569 H       1  UNL1        0.0572
    106 H           5.7323   -6.0922   -4.3860 H       1  UNL1        0.0572
    107 H           3.9476   -6.6079   -3.3033 H       1  UNL1        0.0583
    108 H           3.6957   -7.0495   -1.9921 H       1  UNL1        0.0583
    109 H           5.0465   -4.4376   -1.7565 H       1  UNL1        0.0583
    110 H           5.3646   -5.2913   -1.5744 H       1  UNL1        0.0583
    111 H           7.3547   -6.2411   -3.8145 H       1  UNL1        0.0583
    112 H           7.8610   -4.7213   -4.6403 H       1  UNL1        0.0583
    113 H           8.2797   -6.4515   -2.2586 H       1  UNL1        0.0583
    114 H           7.6412   -4.6316   -2.0770 H       1  UNL1        0.0583
    115 H           5.1691   -4.2767   -0.1900 H       1  UNL1        0.0583
    116 H           5.1370   -5.0696    0.5160 H       1  UNL1        0.0583
    117 H           6.0571   -3.1020   -0.1679 H       1  UNL1        0.0583
    118 H           7.6776   -3.3202    0.0582 H       1  UNL1        0.0583
    119 H           9.1345   -4.9263   -1.7157 H       1  UNL1        0.0594
    120 H           9.3574   -3.6110   -2.6745 H       1  UNL1        0.0594
    121 H          10.1453   -5.1887   -0.3872 H       1  UNL1        0.0720
    122 H          10.1012   -3.3145    0.0799 H       1  UNL1        0.0720
    123 H           7.7078   -4.1351    3.3273 H       1  UNL1        0.0660
    124 H           2.7900   -4.9284    3.4001 H       1  UNL1        0.0293
    125 H           2.1417   -3.2716    3.6131 H       1  UNL1        0.0293
    126 H           3.3225   -3.6286    2.3645 H       1  UNL1        0.0293
    127 H           5.0229   -3.6182    7.4853 H       1  UNL1        0.0907
    128 H           4.1689   -1.3947    2.4769 H       1  UNL1        0.0624
    129 H           4.7311   -1.2973    0.1912 H       1  UNL1        0.0622
    130 H           7.4057   -0.8544   -1.6188 H       1  UNL1        0.0513
    131 H           7.2238   -2.2955   -1.8798 H       1  UNL1        0.0513
    132 H           5.9314   -3.0072   -1.6249 H       1  UNL1        0.1491
    133 H           3.5440   -1.9279   -3.4405 H       1  UNL1        0.0597
    134 H           2.2319   -4.0059   -3.2300 H       1  UNL1        0.0313
    135 H           3.7722   -4.5215   -3.6631 H       1  UNL1        0.0313
    136 H           2.5998   -5.9601   -5.8758 H       1  UNL1        0.0610
    137 H           1.2542   -4.1264   -5.2665 H       1  UNL1        0.2098
    138 H           4.4578   -4.4994   -7.1029 H       1  UNL1        0.0490
    139 H           3.1565   -3.6275   -7.6959 H       1  UNL1        0.0490
    140 H           4.7537    0.2082   -4.6779 H       1  UNL1        0.0600
    141 H           3.0163   -0.1485   -7.3572 H       1  UNL1        0.0236
    142 H           2.8239    1.5278   -7.5439 H       1  UNL1        0.0236
    143 H           4.4174    0.7159   -7.9042 H       1  UNL1        0.0236
    144 H           3.1651    1.0395   -3.7599 H       1  UNL1        0.0236
    145 H           2.0968    1.8372   -5.0277 H       1  UNL1        0.0236
    146 H           2.0475    0.4044   -4.9141 H       1  UNL1        0.0236
    147 H           5.1204    2.3294   -4.5776 H       1  UNL1        0.0236
    148 H           5.6558    2.2762   -6.2782 H       1  UNL1        0.0236
    149 H           4.1099    3.0977   -5.8603 H       1  UNL1        0.0236
    150 H           6.8137    0.0420   -6.5476 H       1  UNL1        0.1495
    151 H          10.0491   -1.5258   -3.6048 H       1  UNL1        0.0286
    152 H          10.8117   -0.9160   -5.0441 H       1  UNL1        0.0286
    153 H          10.5064    1.5319   -4.1147 H       1  UNL1        0.0286
    154 H           9.6263    0.8646   -2.7511 H       1  UNL1        0.0286
    155 H           5.1706   -3.1002   -4.8673 H       1  UNL1        0.0439
    156 H           5.9731   -3.5749   -5.7072 H       1  UNL1        0.0439
    157 H           6.5264   -3.2460   -3.2144 H       1  UNL1        0.0439
    158 H           6.1936   -4.1458   -2.6196 H       1  UNL1        0.0439
@<TRIPOS>BOND
     1     1     2    1
     2     2     3    1
     3     3     4   ar
     4     4     5   ar
     5     5     6    1
     6     6     7   ar
     7     7     8   ar
     8     8     9   ar
     9     9    10   ar
    10    10    11   ar
    11    11    12   ar
    12     7    12   ar
    13     6    13   ar
    14    13    14   ar
    15    14    15    1
    16    14    16   ar
    17     8    16   ar
    18    16    17    2
    19     5    18   ar
    20    18    19   ar
    21    19    20    1
    22    20    21    1
    23    19    22   ar
    24     3    22   ar
    25    22    23    1
    26    23    24    1
    27    24    25    1
    28    25    26    1
    29    26    27    1
    30    27    28    1
    31    28    29    1
    32    29    30    1
    33    30    31    1
    34    31    32    1
    35    32    33    1
    36    33    34    1
    37    34    35    1
    38    35    36    1
    39    36    37    1
    40    37    38    1
    41    38    39    1
    42    39    40    1
    43    40    41    1
    44    41    42    1
    45    42    43    1
    46    43    44   ar
    47    44    45   ar
    48    45    46    1
    49    46    47   ar
    50    47    48    1
    51    47    49   ar
    52    49    50   ar
    53    50    51   ar
    54    46    51   ar
    55    45    52   ar
    56    52    53   ar
    57    53    54   ar
    58    43    54   ar
    59    54    55    1
    60    55    56    1
    61    56    57   am
    62    58    59    1
    63    59    60    1
    64    60    61    1
    65    60    62    1
    66    62    63    1
    67    58    63    1
    68    63    64   am
    69    66    67    1
    70    66    68    1
    71    66    69    1
    72    65    70    1
    73    70    71   am
    74    71    72    1
    75    72    73    1
    76    73    74    3
    77    72    75    1
    78    75    76    1
    79    72    76    1
    80    71    77    2
    81    64    78    2
    82    57    79    2
    83    27    80    1
    84    80    81    1
    85    24    81    1
    86     1    82    1
    87     1    83    1
    88     1    84    1
    89     4    85    1
    90     9    86    1
    91    11    87    1
    92    12    88    1
    93    13    89    1
    94    15    90    1
    95    15    91    1
    96    15    92    1
    97    18    93    1
    98    21    94    1
    99    21    95    1
   100    21    96    1
   101    23    97    1
   102    23    98    1
   103    25    99    1
   104    25   100    1
   105    26   101    1
   106    26   102    1
   107    28   103    1
   108    28   104    1
   109    29   105    1
   110    29   106    1
   111    31   107    1
   112    31   108    1
   113    32   109    1
   114    32   110    1
   115    34   111    1
   116    34   112    1
   117    35   113    1
   118    35   114    1
   119    37   115    1
   120    37   116    1
   121    38   117    1
   122    38   118    1
   123    40   119    1
   124    40   120    1
   125    41   121    1
   126    41   122    1
   127    44   123    1
   128    48   124    1
   129    48   125    1
   130    48   126    1
   131    50   127    1
   132    52   128    1
   133    53   129    1
   134    55   130    1
   135    55   131    1
   136    56   132    1
   137    59   134    1
   138    59   135    1
   139    60   136    1
   140    61   137    1
   141    62   138    1
   142    62   139    1
   143    65   140    1
   144    67   141    1
   145    67   142    1
   146    67   143    1
   147    68   144    1
   148    68   145    1
   149    68   146    1
   150    69   147    1
   151    69   148    1
   152    69   149    1
   153    70   150    1
   154    75   151    1
   155    75   152    1
   156    76   153    1
   157    76   154    1
   158    80   155    1
   159    80   156    1
   160    81   157    1
   161    81   158    1
   162    65    66    1
   163    65    64    1
   164    58   133    1
   165    58    57    1
