@<TRIPOS>MOLECULE
*****
 153 159 0 0 0
SMALL
GASTEIGER

@<TRIPOS>ATOM
      1 C           2.0041    6.2607   -2.7785 C.3     1  UNL1        0.0788
      2 O           1.7316    5.0381   -3.4196 O.3     1  UNL1       -0.4947
      3 C           2.3154    3.9455   -4.0278 C.ar    1  UNL1        0.1285
      4 C           1.5287    2.9176   -4.6615 C.ar    1  UNL1       -0.0116
      5 C           1.6625    1.1574   -4.7308 C.ar    1  UNL1       -0.0090
      6 C           0.3921    0.4285   -5.0956 C.ar    1  UNL1        0.0065
      7 C           0.1256    0.9002   -6.4125 C.ar    1  UNL1       -0.0007
      8 C          -0.6780    0.1895   -7.2032 C.ar    1  UNL1        0.0653
      9 C          -0.6607    0.6351   -8.4823 C.ar    1  UNL1        0.0405
     10 N           0.2736    1.4837   -9.0257 N.ar    1  UNL1       -0.2625
     11 C           1.1638    2.0166   -8.2264 C.ar    1  UNL1        0.0282
     12 C           0.9289    1.9332   -6.9345 C.ar    1  UNL1       -0.0351
     13 C          -0.3743   -0.5650   -4.5425 C.ar    1  UNL1        0.0159
     14 N          -1.2760   -1.2604   -5.3404 N.ar    1  UNL1       -0.3171
     15 C          -1.9938   -2.4118   -4.8315 C.3     1  UNL1        0.0147
     16 C          -1.4370   -0.9495   -6.6936 C.ar    1  UNL1        0.2603
     17 O          -2.1495   -1.5627   -7.4775 O.2     1  UNL1       -0.2670
     18 C           2.7324    0.4257   -4.2109 C.ar    1  UNL1       -0.0116
     19 C           3.6514    1.4014   -3.5905 C.ar    1  UNL1        0.1285
     20 O           4.4857    0.3602   -2.4123 O.3     1  UNL1       -0.4947
     21 C           5.2358    0.5770   -0.9797 C.3     1  UNL1        0.0788
     22 C           3.2712    3.2095   -3.4041 C.ar    1  UNL1        0.0498
     23 C           2.9929    4.0189   -1.6315 C.3     1  UNL1        0.0311
     24 N           2.1852    2.9352   -0.1704 N.3     1  UNL1       -0.2955
     25 C           0.4806    2.8497    0.3727 C.3     1  UNL1        0.0120
     26 C          -0.2958    1.5625   -0.5077 C.3     1  UNL1        0.0118
     27 N           0.5974    0.1981   -1.1889 N.3     1  UNL1       -0.2977
     28 C           0.6150   -1.0279   -0.4534 C.3     1  UNL1        0.0224
     29 C           0.7805   -1.4190    1.0371 C.3     1  UNL1        0.0605
     30 O           0.5557   -0.4532    2.0582 O.3     1  UNL1       -0.3762
     31 C           0.5604    0.7625    1.5431 C.3     1  UNL1        0.0711
     32 C           1.9387    0.9978    1.4695 C.3     1  UNL1        0.0711
     33 O           2.5717   -0.0245    0.8435 O.3     1  UNL1       -0.3752
     34 C           3.4899   -0.8189    1.3572 C.3     1  UNL1        0.0711
     35 C           3.9999   -0.2877    2.5669 C.3     1  UNL1        0.0711
     36 O           3.4703    0.9332    3.0824 O.3     1  UNL1       -0.3752
     37 C           3.5858    2.2584    2.6471 C.3     1  UNL1        0.0711
     38 C           4.8479    2.9018    2.7021 C.3     1  UNL1        0.0711
     39 O           6.4971    2.1771    2.2262 O.3     1  UNL1       -0.3742
     40 C           6.3424    0.8322    2.2156 C.3     1  UNL1        0.0818
     41 C           6.6657    1.0046    3.6183 C.3     1  UNL1        0.1128
     42 O           6.2428    2.4163    4.3350 O.3     1  UNL1       -0.4893
     43 C           6.5985    3.8737    3.5062 C.ar    1  UNL1        0.1259
     44 C           6.1473    4.8935    4.3019 C.ar    1  UNL1       -0.0113
     45 C           5.6927    6.1504    3.6560 C.ar    1  UNL1       -0.0061
     46 C           5.2861    7.2462    4.4113 C.ar    1  UNL1        0.0418
     47 C           4.1422    8.0220    4.4872 C.ar    1  UNL1        0.0531
     48 C           2.8161    7.7936    3.9822 C.3     1  UNL1       -0.0212
     49 N           4.3044    9.1473    5.1745 N.ar    1  UNL1       -0.2520
     50 C           5.5554    9.1872    5.5381 C.ar    1  UNL1        0.0655
     51 S           6.6289    7.9782    5.0941 S.2     1  UNL1       -0.0752
     52 C           5.6558    6.5611    2.3547 C.ar    1  UNL1       -0.0529
     53 C           5.5770    5.4925    1.6534 C.ar    1  UNL1       -0.0530
     54 C           6.2553    4.2147    1.9109 C.ar    1  UNL1        0.0113
     55 C           5.7489    2.8425    0.5934 C.3     1  UNL1        0.0403
     56 N           4.4533    2.6513   -0.0330 N.am    1  UNL1       -0.3095
     57 C           3.8595    2.4424   -1.6383 C.2     1  UNL1        0.2339
     58 C           1.8639    2.6824   -1.9806 C.3     1  UNL1        0.1047
     59 C           0.5942    2.0022   -2.7209 C.3     1  UNL1        0.0018
     60 C          -0.5944    2.8284   -3.0518 C.3     1  UNL1        0.0731
     61 O          -1.7531    2.6015   -2.2534 O.3     1  UNL1       -0.3902
     62 C          -0.1829    4.2795   -2.8045 C.3     1  UNL1        0.0416
     63 N           0.9232    4.2051   -1.4862 N.am    1  UNL1       -0.2858
     64 C           1.7489    5.2603   -0.3506 C.2     1  UNL1        0.2371
     65 C           3.3153    4.8491    0.5022 C.3     1  UNL1        0.1044
     66 C           2.6130    4.8442    2.1499 C.3     1  UNL1       -0.0108
     67 C           2.4236    6.2531    2.0629 C.3     1  UNL1       -0.0579
     68 C           1.1435    4.5099    2.2907 C.3     1  UNL1       -0.0579
     69 C           3.1191    4.4339    3.6780 C.3     1  UNL1       -0.0579
     70 N           5.0738    4.9459   -0.3708 N.am    1  UNL1       -0.3037
     71 C           6.4055    4.2125   -0.7928 C.2     1  UNL1        0.2105
     72 C           7.6358    4.6521   -0.0740 C.3     1  UNL1        0.0122
     73 O           6.7676    3.1010   -1.2271 O.2     1  UNL1       -0.2761
     74 O           1.9275    6.5059   -0.3836 O.2     1  UNL1       -0.2735
     75 O           4.9610    2.6475   -2.3877 O.2     1  UNL1       -0.2738
     76 C           1.9790    0.2471   -1.5987 C.3     1  UNL1        0.0118
     77 C           2.5014    1.1448   -0.6596 C.3     1  UNL1        0.0120
     78 H           1.2361    6.7607   -2.0622 H       1  UNL1        0.0660
     79 H           2.9693    6.4514   -3.1338 H       1  UNL1        0.0660
     80 H           2.5578    5.9614   -1.9849 H       1  UNL1        0.0660
     81 H           0.4984    3.2541   -4.9817 H       1  UNL1        0.0660
     82 H          -1.4104    0.2706   -9.1500 H       1  UNL1        0.0837
     83 H           2.0837    2.5050   -8.5194 H       1  UNL1        0.0830
     84 H           1.6080    2.6084   -6.4615 H       1  UNL1        0.0639
     85 H          -0.3086   -0.9480   -3.5138 H       1  UNL1        0.0816
     86 H          -3.0605   -2.2199   -4.9746 H       1  UNL1        0.0457
     87 H          -1.7000   -3.2976   -5.4078 H       1  UNL1        0.0457
     88 H          -1.7833   -2.5777   -3.7719 H       1  UNL1        0.0457
     89 H           2.5688   -0.6430   -3.8665 H       1  UNL1        0.0660
     90 H           5.7517    1.4676   -1.1050 H       1  UNL1        0.0660
     91 H           4.6959    0.7214    0.0549 H       1  UNL1        0.0660
     92 H           5.6390   -0.1507   -0.2916 H       1  UNL1        0.0660
     93 H           3.9917    4.0503   -1.3820 H       1  UNL1        0.0478
     94 H           3.4243    4.9860   -1.3985 H       1  UNL1        0.0478
     95 H           0.5788    2.6562    1.4313 H       1  UNL1        0.0439
     96 H          -0.2985    3.5839    0.7541 H       1  UNL1        0.0439
     97 H          -0.3008    2.4053   -1.1039 H       1  UNL1        0.0439
     98 H          -1.2608    1.2710   -0.1351 H       1  UNL1        0.0439
     99 H          -0.4118   -1.1432   -0.5642 H       1  UNL1        0.0449
    100 H           1.3534   -1.6347   -1.0671 H       1  UNL1        0.0449
    101 H           1.4391   -1.9168    1.7381 H       1  UNL1        0.0572
    102 H           1.7402   -1.7249    0.5890 H       1  UNL1        0.0572
    103 H           0.7866    0.8655    0.5491 H       1  UNL1        0.0583
    104 H          -0.3492    1.3447    1.7594 H       1  UNL1        0.0583
    105 H           2.5481    1.6990    1.0107 H       1  UNL1        0.0583
    106 H           1.9125    1.8102    2.0575 H       1  UNL1        0.0583
    107 H           2.6697   -0.7528    1.9524 H       1  UNL1        0.0583
    108 H           3.9933   -1.2085    0.4176 H       1  UNL1        0.0583
    109 H           3.9114   -0.9299    3.3998 H       1  UNL1        0.0583
    110 H           4.9555   -0.6260    2.2694 H       1  UNL1        0.0583
    111 H           3.2131    2.8476    1.8276 H       1  UNL1        0.0583
    112 H           2.6772    2.7230    2.9778 H       1  UNL1        0.0583
    113 H           4.5704    3.6058    1.8752 H       1  UNL1        0.0583
    114 H           4.9283    2.0494    3.1715 H       1  UNL1        0.0583
    115 H           5.3342    0.8208    1.9605 H       1  UNL1        0.0594
    116 H           6.7080    0.1496    1.4106 H       1  UNL1        0.0594
    117 H           6.2055    0.0962    4.0013 H       1  UNL1        0.0720
    118 H           7.6988    1.2134    3.4840 H       1  UNL1        0.0720
    119 H           6.1037    4.7396    5.3669 H       1  UNL1        0.0660
    120 H           1.9917    7.5287    4.6399 H       1  UNL1        0.0293
    121 H           2.4809    8.3879    3.1085 H       1  UNL1        0.0293
    122 H           3.1108    6.8088    3.7224 H       1  UNL1        0.0293
    123 H           5.9136    9.9836    6.1256 H       1  UNL1        0.0907
    124 H           5.2196    7.4194    1.8046 H       1  UNL1        0.0624
    125 H           4.7540    5.9336    1.0147 H       1  UNL1        0.0622
    126 H           6.4285    1.9917    0.3761 H       1  UNL1        0.0513
    127 H           5.2806    2.1087    1.1227 H       1  UNL1        0.0513
    128 H           3.9516    2.0932    0.6634 H       1  UNL1        0.1491
    129 H           1.2849    2.1117   -1.3264 H       1  UNL1        0.0597
    130 H           0.3140    0.9563   -2.8713 H       1  UNL1        0.0313
    131 H           1.4948    1.8178   -3.1339 H       1  UNL1        0.0313
    132 H          -0.9024    2.4403   -4.0159 H       1  UNL1        0.0610
    133 H          -1.5980    3.1516   -1.4575 H       1  UNL1        0.2098
    134 H           0.1173    4.6517   -3.8622 H       1  UNL1        0.0490
    135 H          -0.8971    5.0106   -2.5669 H       1  UNL1        0.0490
    136 H           3.3923    3.8831    0.5253 H       1  UNL1        0.0600
    137 H           1.8427    6.7701    1.3609 H       1  UNL1        0.0236
    138 H           1.7586    6.3540    2.8883 H       1  UNL1        0.0236
    139 H           3.3952    6.6714    1.9799 H       1  UNL1        0.0236
    140 H           1.1794    3.5022    2.5648 H       1  UNL1        0.0236
    141 H           0.5571    4.6744    3.1863 H       1  UNL1        0.0236
    142 H           0.5606    4.9034    1.4620 H       1  UNL1        0.0236
    143 H           3.1841    3.4177    4.2026 H       1  UNL1        0.0236
    144 H           4.1327    4.6323    3.5996 H       1  UNL1        0.0236
    145 H           2.4939    4.6342    4.5284 H       1  UNL1        0.0236
    146 H           5.4405    5.8684   -0.3959 H       1  UNL1        0.1495
    147 H           7.9946    4.0155    0.7926 H       1  UNL1        0.0322
    148 H           8.2908    4.3603   -0.8734 H       1  UNL1        0.0322
    149 H           7.4473    5.6687    0.1837 H       1  UNL1        0.0322
    150 H           2.4752    0.8990   -2.2101 H       1  UNL1        0.0439
    151 H           2.6505   -0.5894   -1.8782 H       1  UNL1        0.0439
    152 H           3.4354    1.3502   -0.5926 H       1  UNL1        0.0439
    153 H           3.2991    0.3874   -0.5659 H       1  UNL1        0.0439
@<TRIPOS>BOND
     1     1     2    1
     2     2     3    1
     3     3     4   ar
     4     4     5   ar
     5     5     6    1
     6     6     7   ar
     7     7     8   ar
     8     8     9   ar
     9     9    10   ar
    10    10    11   ar
    11    11    12   ar
    12     7    12   ar
    13     6    13   ar
    14    13    14   ar
    15    14    15    1
    16    14    16   ar
    17     8    16   ar
    18    16    17    2
    19     5    18   ar
    20    18    19   ar
    21    19    20    1
    22    20    21    1
    23    19    22   ar
    24     3    22   ar
    25    22    23    1
    26    23    24    1
    27    24    25    1
    28    25    26    1
    29    26    27    1
    30    27    28    1
    31    28    29    1
    32    29    30    1
    33    30    31    1
    34    31    32    1
    35    32    33    1
    36    33    34    1
    37    34    35    1
    38    35    36    1
    39    36    37    1
    40    37    38    1
    41    38    39    1
    42    39    40    1
    43    40    41    1
    44    41    42    1
    45    42    43    1
    46    43    44   ar
    47    44    45   ar
    48    45    46    1
    49    46    47   ar
    50    47    48    1
    51    47    49   ar
    52    49    50   ar
    53    50    51   ar
    54    46    51   ar
    55    45    52   ar
    56    52    53   ar
    57    53    54   ar
    58    43    54   ar
    59    54    55    1
    60    55    56    1
    61    56    57   am
    62    58    59    1
    63    59    60    1
    64    60    61    1
    65    60    62    1
    66    62    63    1
    67    58    63    1
    68    63    64   am
    69    66    67    1
    70    66    68    1
    71    66    69    1
    72    65    70    1
    73    70    71   am
    74    71    72    1
    75    71    73    2
    76    64    74    2
    77    57    75    2
    78    27    76    1
    79    76    77    1
    80    24    77    1
    81     1    78    1
    82     1    79    1
    83     1    80    1
    84     4    81    1
    85     9    82    1
    86    11    83    1
    87    12    84    1
    88    13    85    1
    89    15    86    1
    90    15    87    1
    91    15    88    1
    92    18    89    1
    93    21    90    1
    94    21    91    1
    95    21    92    1
    96    23    93    1
    97    23    94    1
    98    25    95    1
    99    25    96    1
   100    26    97    1
   101    26    98    1
   102    28    99    1
   103    28   100    1
   104    29   101    1
   105    29   102    1
   106    31   103    1
   107    31   104    1
   108    32   105    1
   109    32   106    1
   110    34   107    1
   111    34   108    1
   112    35   109    1
   113    35   110    1
   114    37   111    1
   115    37   112    1
   116    38   113    1
   117    38   114    1
   118    40   115    1
   119    40   116    1
   120    41   117    1
   121    41   118    1
   122    44   119    1
   123    48   120    1
   124    48   121    1
   125    48   122    1
   126    50   123    1
   127    52   124    1
   128    53   125    1
   129    55   126    1
   130    55   127    1
   131    56   128    1
   132    59   130    1
   133    59   131    1
   134    60   132    1
   135    61   133    1
   136    62   134    1
   137    62   135    1
   138    65   136    1
   139    67   137    1
   140    67   138    1
   141    67   139    1
   142    68   140    1
   143    68   141    1
   144    68   142    1
   145    69   143    1
   146    69   144    1
   147    69   145    1
   148    70   146    1
   149    72   147    1
   150    72   148    1
   151    72   149    1
   152    76   150    1
   153    76   151    1
   154    77   152    1
   155    77   153    1
   156    65    66    1
   157    65    64    1
   158    58   129    1
   159    58    57    1
