@<TRIPOS>MOLECULE
*****
 82 85 0 0 0
SMALL
GASTEIGER

@<TRIPOS>ATOM
      1 C           0.9979   -0.0488   -0.0068 C.3     1  UNL1        0.0788
      2 O           0.6355   -0.1282   -1.3704 O.3     1  UNL1       -0.4947
      3 C           1.1312    0.8139   -2.2211 C.ar    1  UNL1        0.1285
      4 C           2.3538    1.3903   -2.1049 C.ar    1  UNL1       -0.0116
      5 C           2.7483    2.4028   -2.9852 C.ar    1  UNL1       -0.0090
      6 C           4.0882    2.8894   -2.9142 C.ar    1  UNL1        0.0065
      7 C           4.9563    1.9666   -3.3340 C.ar    1  UNL1        0.0159
      8 N           6.2970    2.2030   -3.3567 N.ar    1  UNL1       -0.3171
      9 C           7.1730    1.1419   -3.7899 C.3     1  UNL1        0.0147
     10 C           6.8437    3.4238   -2.9659 C.ar    1  UNL1        0.2603
     11 C           5.8913    4.4572   -2.5045 C.ar    1  UNL1        0.0653
     12 C           4.5299    4.2000   -2.4861 C.ar    1  UNL1       -0.0007
     13 C           3.6435    5.1449   -1.9740 C.ar    1  UNL1       -0.0351
     14 C           4.1906    6.2011   -1.2858 C.ar    1  UNL1        0.0282
     15 N           5.5011    6.5196   -1.3404 N.ar    1  UNL1       -0.2625
     16 C           6.3162    5.6690   -2.0137 C.ar    1  UNL1        0.0405
     17 O           8.0495    3.6582   -2.9613 O.2     1  UNL1       -0.2670
     18 C           2.0109    2.8752   -4.0507 C.ar    1  UNL1       -0.0116
     19 C           0.8252    2.2424   -4.3196 C.ar    1  UNL1        0.1285
     20 O           0.1008    2.8375   -5.3750 O.3     1  UNL1       -0.4947
     21 C           0.3743    4.1735   -5.9494 C.3     1  UNL1        0.0788
     22 C           0.3170    1.2088   -3.2835 C.ar    1  UNL1        0.0498
     23 C          -1.1331    0.9425   -2.7385 C.3     1  UNL1        0.0311
     24 N          -1.5508    2.1744   -2.1442 N.3     1  UNL1       -0.2955
     25 C          -1.4811    2.6836   -0.7329 C.3     1  UNL1        0.0120
     26 C          -0.3898    4.0409   -0.5050 C.3     1  UNL1        0.0118
     27 N          -0.1705    5.1612   -1.5922 N.3     1  UNL1       -0.2977
     28 C          -0.8280    6.6424   -1.7033 C.3     1  UNL1        0.0224
     29 C          -2.3758    7.1273   -1.8390 C.3     1  UNL1        0.0605
     30 O          -3.3776    6.5949   -0.9701 O.3     1  UNL1       -0.3762
     31 C          -2.9572    5.3170   -0.7438 C.3     1  UNL1        0.0711
     32 C          -2.9094    4.6743   -2.0857 C.3     1  UNL1        0.0711
     33 O          -2.4705    5.0700   -3.4046 O.3     1  UNL1       -0.3752
     34 C          -3.5145    5.4607   -4.1964 C.3     1  UNL1        0.0711
     35 C          -4.6267    4.4369   -4.3253 C.3     1  UNL1        0.0717
     36 O          -5.0140    3.5912   -3.2236 O.3     1  UNL1       -0.3664
     37 C          -4.4799    2.2619   -3.1650 C.3     1  UNL1        0.1444
     38 C          -4.4369    1.3887   -4.4293 C.2     1  UNL1        0.3308
     39 O          -3.2689    1.3299   -5.1581 O.3     1  UNL1       -0.4790
     40 O          -5.3879    0.8299   -4.8135 O.2     1  UNL1       -0.2484
     41 C          -0.2125    4.3792   -2.8521 C.3     1  UNL1        0.0118
     42 C          -1.2880    3.1427   -3.2122 C.3     1  UNL1        0.0120
     43 H           0.5746   -0.9353    0.4714 H       1  UNL1        0.0660
     44 H           0.5832    0.8384    0.4872 H       1  UNL1        0.0660
     45 H           2.0785   -0.0943    0.0951 H       1  UNL1        0.0660
     46 H           3.0404    1.0444   -1.3502 H       1  UNL1        0.0660
     47 H           4.6136    0.9844   -3.6669 H       1  UNL1        0.0816
     48 H           7.7369    1.5029   -4.6510 H       1  UNL1        0.0457
     49 H           7.8518    0.9007   -2.9694 H       1  UNL1        0.0457
     50 H           6.6086    0.2453   -4.0708 H       1  UNL1        0.0457
     51 H           2.5669    5.0331   -2.0200 H       1  UNL1        0.0639
     52 H           3.5729    6.7915   -0.6154 H       1  UNL1        0.0830
     53 H           7.3492    5.9790   -2.1200 H       1  UNL1        0.0837
     54 H           2.2763    3.8505   -4.4681 H       1  UNL1        0.0660
     55 H           0.6351    5.0359   -5.3096 H       1  UNL1        0.0660
     56 H           1.2023    4.0755   -6.6420 H       1  UNL1        0.0660
     57 H          -0.5275    4.5299   -6.4759 H       1  UNL1        0.0660
     58 H          -1.7807    0.6195   -3.5484 H       1  UNL1        0.0478
     59 H          -1.3594    0.1541   -2.0005 H       1  UNL1        0.0478
     60 H          -2.5452    2.9734   -0.6039 H       1  UNL1        0.0439
     61 H          -1.6100    2.0893    0.2004 H       1  UNL1        0.0439
     62 H           0.5594    3.4904   -0.4550 H       1  UNL1        0.0439
     63 H          -0.4817    4.5368    0.4681 H       1  UNL1        0.0439
     64 H          -0.4723    7.2377   -0.8703 H       1  UNL1        0.0449
     65 H          -0.4070    7.0704   -2.6387 H       1  UNL1        0.0449
     66 H          -2.8542    7.9719   -2.3423 H       1  UNL1        0.0572
     67 H          -2.3935    6.7176   -2.7990 H       1  UNL1        0.0572
     68 H          -1.9930    5.4579   -0.2857 H       1  UNL1        0.0583
     69 H          -3.3718    4.6712    0.0395 H       1  UNL1        0.0583
     70 H          -2.0025    4.2694   -1.8334 H       1  UNL1        0.0583
     71 H          -3.4896    3.8129   -2.0708 H       1  UNL1        0.0583
     72 H          -3.9456    6.2522   -3.6133 H       1  UNL1        0.0583
     73 H          -3.0885    5.9403   -5.0956 H       1  UNL1        0.0583
     74 H          -5.4510    5.1427   -4.3903 H       1  UNL1        0.0583
     75 H          -4.5191    3.8427   -5.2206 H       1  UNL1        0.0583
     76 H          -3.4629    2.2355   -2.9094 H       1  UNL1        0.0676
     77 H          -4.7603    1.7925   -2.2010 H       1  UNL1        0.0676
     78 H          -2.3646    1.6223   -4.9677 H       1  UNL1        0.2951
     79 H           0.6944    3.8509   -2.6450 H       1  UNL1        0.0439
     80 H          -0.0343    5.0485   -3.6808 H       1  UNL1        0.0439
     81 H          -1.3281    2.8627   -4.2601 H       1  UNL1        0.0439
     82 H          -2.2960    3.2838   -3.5639 H       1  UNL1        0.0439
@<TRIPOS>BOND
     1     1     2    1
     2     2     3    1
     3     3     4   ar
     4     4     5   ar
     5     5     6    1
     6     6     7   ar
     7     7     8   ar
     8     8     9    1
     9     8    10   ar
    10    10    11   ar
    11    11    12   ar
    12     6    12   ar
    13    12    13   ar
    14    13    14   ar
    15    14    15   ar
    16    15    16   ar
    17    11    16   ar
    18    10    17    2
    19     5    18   ar
    20    18    19   ar
    21    19    20    1
    22    20    21    1
    23     3    22   ar
    24    19    22   ar
    25    22    23    1
    26    23    24    1
    27    24    25    1
    28    25    26    1
    29    26    27    1
    30    27    28    1
    31    28    29    1
    32    29    30    1
    33    30    31    1
    34    31    32    1
    35    32    33    1
    36    33    34    1
    37    34    35    1
    38    35    36    1
    39    36    37    1
    40    37    38    1
    41    38    39    1
    42    38    40    2
    43    27    41    1
    44    41    42    1
    45    24    42    1
    46     1    43    1
    47     1    44    1
    48     1    45    1
    49     4    46    1
    50     7    47    1
    51     9    48    1
    52     9    49    1
    53     9    50    1
    54    13    51    1
    55    14    52    1
    56    16    53    1
    57    18    54    1
    58    21    55    1
    59    21    56    1
    60    21    57    1
    61    23    58    1
    62    23    59    1
    63    25    60    1
    64    25    61    1
    65    26    62    1
    66    26    63    1
    67    28    64    1
    68    28    65    1
    69    29    66    1
    70    29    67    1
    71    31    68    1
    72    31    69    1
    73    32    70    1
    74    32    71    1
    75    34    72    1
    76    34    73    1
    77    35    74    1
    78    35    75    1
    79    37    76    1
    80    37    77    1
    81    39    78    1
    82    41    79    1
    83    41    80    1
    84    42    81    1
    85    42    82    1
