@<TRIPOS>MOLECULE
*****
 111 114 0 0 0
SMALL
GASTEIGER

@<TRIPOS>ATOM
      1 C          -2.5605   -7.5082    5.7307 C.3     1  UNL1       -0.0212
      2 C          -1.4230   -8.3205    6.2450 C.ar    1  UNL1        0.0531
      3 C          -0.1579   -8.6459    5.7223 C.ar    1  UNL1        0.0418
      4 S           0.6734   -9.6707    6.8227 S.2     1  UNL1       -0.0752
      5 C          -0.6300   -9.5420    7.8986 C.ar    1  UNL1        0.0655
      6 N          -1.6578   -8.8340    7.5109 N.ar    1  UNL1       -0.2520
      7 C           0.6163   -8.3386    4.5142 C.ar    1  UNL1       -0.0061
      8 C           0.6003   -9.2097    3.4610 C.ar    1  UNL1       -0.0529
      9 C           1.0893   -8.7626    2.2394 C.ar    1  UNL1       -0.0530
     10 C           1.6029   -7.4661    1.9265 C.ar    1  UNL1        0.0113
     11 C           1.7938   -7.0456    0.4551 C.3     1  UNL1        0.0403
     12 N           3.1327   -7.4619    0.0235 N.am    1  UNL1       -0.3095
     13 C           3.3065   -8.0488   -1.2025 C.2     1  UNL1        0.2339
     14 C           4.4654   -9.0640   -1.5147 C.3     1  UNL1        0.1047
     15 C           5.8265   -8.5190   -1.8946 C.3     1  UNL1        0.0018
     16 C           6.2720   -9.5021   -2.9818 C.3     1  UNL1        0.0731
     17 O           6.8176  -10.6965   -2.3998 O.3     1  UNL1       -0.3902
     18 C           4.9773   -9.8238   -3.7349 C.3     1  UNL1        0.0416
     19 N           3.9687   -9.8372   -2.6858 N.am    1  UNL1       -0.2858
     20 C           2.6843  -10.3862   -2.8982 C.2     1  UNL1        0.2371
     21 C           1.6421  -10.5235   -1.7012 C.3     1  UNL1        0.1045
     22 C           2.1988  -11.3595   -0.5184 C.3     1  UNL1       -0.0108
     23 C           3.2078  -12.3632   -1.0253 C.3     1  UNL1       -0.0579
     24 C           2.8809  -10.5175    0.5362 C.3     1  UNL1       -0.0579
     25 C           1.0478  -12.0368    0.2270 C.3     1  UNL1       -0.0579
     26 N           0.3432  -11.0424   -2.1920 N.am    1  UNL1       -0.3009
     27 C          -0.7676  -10.2645   -2.1555 C.2     1  UNL1        0.2508
     28 C          -2.1220  -10.7777   -2.4758 C.3     1  UNL1        0.1868
     29 F          -3.1297  -10.2529   -1.6638 F       1  UNL1       -0.2320
     30 C          -2.4810  -11.0320   -3.9298 C.3     1  UNL1       -0.0068
     31 C          -2.4404  -12.1782   -2.9527 C.3     1  UNL1       -0.0068
     32 O          -0.6737   -9.0517   -1.7479 O.2     1  UNL1       -0.2723
     33 O           2.3920  -10.8749   -3.9991 O.2     1  UNL1       -0.2735
     34 O           2.4196   -7.8841   -2.0457 O.2     1  UNL1       -0.2738
     35 C           1.7128   -6.5945    3.0271 C.ar    1  UNL1        0.1259
     36 O           1.5879   -5.2064    2.7241 O.3     1  UNL1       -0.4893
     37 C           1.0485   -4.2720    3.7410 C.3     1  UNL1        0.1128
     38 C          -0.3876   -4.3828    4.4727 C.3     1  UNL1        0.0818
     39 O          -1.0925   -5.6029    4.5686 O.3     1  UNL1       -0.3742
     40 C          -1.0598   -6.3172    3.3251 C.3     1  UNL1        0.0711
     41 C          -1.1493   -5.9994    1.8577 C.3     1  UNL1        0.0711
     42 O          -0.8975   -4.7231    1.3940 O.3     1  UNL1       -0.3752
     43 C          -1.5828   -3.6865    2.0752 C.3     1  UNL1        0.0711
     44 C          -2.9682   -3.8766    3.2613 C.3     1  UNL1        0.0712
     45 O          -3.8380   -5.1059    3.4675 O.3     1  UNL1       -0.3725
     46 C          -3.8207   -6.2556    2.5504 C.3     1  UNL1        0.0987
     47 C          -4.1604   -6.1728    0.8981 C.3     1  UNL1        0.1822
     48 O          -4.1460   -4.9548    0.1149 O.3     1  UNL1       -0.3493
     49 C          -4.2331   -3.8531    0.9412 C.3     1  UNL1        0.0479
     50 C          -5.5301   -3.8085    1.7059 C.3     1  UNL1       -0.0415
     51 O          -3.6187   -7.1920    0.0430 O.3     1  UNL1       -0.3493
     52 C          -2.2904   -7.0354   -0.5016 C.3     1  UNL1        0.0479
     53 C          -1.7744   -5.6589   -0.9869 C.3     1  UNL1       -0.0415
     54 C           1.2682   -7.0897    4.3242 C.ar    1  UNL1       -0.0113
     55 H          -3.5029   -8.0522    5.6670 H       1  UNL1        0.0293
     56 H          -2.6884   -6.5727    6.2889 H       1  UNL1        0.0293
     57 H          -2.4406   -7.2533    4.7097 H       1  UNL1        0.0293
     58 H          -0.5994  -10.0311    8.8554 H       1  UNL1        0.0907
     59 H           0.1579  -10.2039    3.5102 H       1  UNL1        0.0624
     60 H           0.9682   -9.5546    1.5324 H       1  UNL1        0.0622
     61 H           1.0037   -7.4735   -0.2000 H       1  UNL1        0.0513
     62 H           1.6958   -5.9645    0.2937 H       1  UNL1        0.0513
     63 H           3.8646   -7.3052    0.6946 H       1  UNL1        0.1491
     64 H           4.8321   -9.7788   -0.7828 H       1  UNL1        0.0597
     65 H           6.5127   -8.5415   -1.0316 H       1  UNL1        0.0313
     66 H           5.7202   -7.4958   -2.2424 H       1  UNL1        0.0313
     67 H           7.0520   -9.0677   -3.6070 H       1  UNL1        0.0610
     68 H           6.0966  -11.2115   -1.9952 H       1  UNL1        0.2098
     69 H           4.7229   -9.0207   -4.4321 H       1  UNL1        0.0490
     70 H           5.0063  -10.7851   -4.2545 H       1  UNL1        0.0490
     71 H           1.3604   -9.5681   -1.2699 H       1  UNL1        0.0600
     72 H           4.0626  -11.8713   -1.4910 H       1  UNL1        0.0236
     73 H           3.6237  -12.9365   -0.2014 H       1  UNL1        0.0236
     74 H           2.7430  -13.0050   -1.7736 H       1  UNL1        0.0236
     75 H           2.3205   -9.6247    0.6175 H       1  UNL1        0.0236
     76 H           3.1684  -11.0068    1.4625 H       1  UNL1        0.0236
     77 H           3.7725  -10.0180    0.3198 H       1  UNL1        0.0236
     78 H           0.3250  -11.2962    0.5943 H       1  UNL1        0.0236
     79 H           0.5162  -12.7283   -0.4260 H       1  UNL1        0.0236
     80 H           1.4314  -12.5930    1.0837 H       1  UNL1        0.0236
     81 H           0.2942  -11.9854   -2.5614 H       1  UNL1        0.1496
     82 H          -3.4394  -10.7146   -4.3277 H       1  UNL1        0.0302
     83 H          -1.6975  -10.9329   -4.6731 H       1  UNL1        0.0302
     84 H          -1.6740  -12.9323   -3.0330 H       1  UNL1        0.0302
     85 H          -3.3875  -12.6096   -2.6334 H       1  UNL1        0.0302
     86 H           1.7676   -4.2921    4.5369 H       1  UNL1        0.0720
     87 H           1.1053   -3.2731    3.2628 H       1  UNL1        0.0720
     88 H          -0.7068   -3.5043    5.0648 H       1  UNL1        0.0594
     89 H          -1.1319   -4.1285    3.8314 H       1  UNL1        0.0594
     90 H          -0.0989   -6.1019    3.1679 H       1  UNL1        0.0583
     91 H          -1.2171   -7.3910    3.4288 H       1  UNL1        0.0583
     92 H          -0.5814   -6.8134    1.4005 H       1  UNL1        0.0583
     93 H          -2.0637   -6.1877    1.4015 H       1  UNL1        0.0583
     94 H          -0.6637   -3.4003    2.5378 H       1  UNL1        0.0583
     95 H          -1.5634   -2.6804    1.6465 H       1  UNL1        0.0583
     96 H          -2.9270   -3.3157    4.2100 H       1  UNL1        0.0583
     97 H          -3.6201   -3.0923    2.8805 H       1  UNL1        0.0583
     98 H          -2.8349   -6.3522    2.7606 H       1  UNL1        0.0610
     99 H          -3.8417   -7.3247    2.9081 H       1  UNL1        0.0610
    100 H          -5.2210   -6.3801    0.9654 H       1  UNL1        0.0933
    101 H          -3.4563   -4.2363    1.5102 H       1  UNL1        0.0558
    102 H          -3.7798   -2.8773    0.6938 H       1  UNL1        0.0558
    103 H          -5.7370   -4.7562    2.2131 H       1  UNL1        0.0252
    104 H          -5.5708   -3.0554    2.4979 H       1  UNL1        0.0252
    105 H          -6.2930   -3.6551    0.9611 H       1  UNL1        0.0252
    106 H          -1.6366   -7.5513    0.1979 H       1  UNL1        0.0558
    107 H          -2.1759   -7.7024   -1.3366 H       1  UNL1        0.0558
    108 H          -1.9820   -4.8057   -0.3478 H       1  UNL1        0.0252
    109 H          -0.6815   -5.6371   -1.1195 H       1  UNL1        0.0252
    110 H          -2.2872   -5.3717   -1.8989 H       1  UNL1        0.0252
    111 H           0.9427   -6.3697    5.0754 H       1  UNL1        0.0660
@<TRIPOS>BOND
     1     1     2    1
     2     2     3   ar
     3     3     4   ar
     4     4     5   ar
     5     5     6   ar
     6     2     6   ar
     7     3     7    1
     8     7     8   ar
     9     8     9   ar
    10     9    10   ar
    11    10    11    1
    12    11    12    1
    13    12    13   am
    14    14    15    1
    15    15    16    1
    16    16    17    1
    17    16    18    1
    18    18    19    1
    19    14    19    1
    20    19    20   am
    21    22    23    1
    22    22    24    1
    23    22    25    1
    24    21    26    1
    25    26    27   am
    26    27    28    1
    27    28    29    1
    28    28    30    1
    29    30    31    1
    30    28    31    1
    31    27    32    2
    32    20    33    2
    33    13    34    2
    34    10    35   ar
    35    35    36    1
    36    36    37    1
    37    37    38    1
    38    38    39    1
    39    39    40    1
    40    40    41    1
    41    41    42    1
    42    42    43    1
    43    43    44    1
    44    44    45    1
    45    45    46    1
    46    46    47    1
    47    47    48    1
    48    48    49    1
    49    49    50    1
    50    47    51    1
    51    51    52    1
    52    52    53    1
    53    35    54   ar
    54     7    54   ar
    55     1    55    1
    56     1    56    1
    57     1    57    1
    58     5    58    1
    59     8    59    1
    60     9    60    1
    61    11    61    1
    62    11    62    1
    63    12    63    1
    64    15    65    1
    65    15    66    1
    66    16    67    1
    67    17    68    1
    68    18    69    1
    69    18    70    1
    70    21    71    1
    71    23    72    1
    72    23    73    1
    73    23    74    1
    74    24    75    1
    75    24    76    1
    76    24    77    1
    77    25    78    1
    78    25    79    1
    79    25    80    1
    80    26    81    1
    81    30    82    1
    82    30    83    1
    83    31    84    1
    84    31    85    1
    85    37    86    1
    86    37    87    1
    87    38    88    1
    88    38    89    1
    89    40    90    1
    90    40    91    1
    91    41    92    1
    92    41    93    1
    93    43    94    1
    94    43    95    1
    95    44    96    1
    96    44    97    1
    97    46    98    1
    98    46    99    1
    99    47   100    1
   100    49   101    1
   101    49   102    1
   102    50   103    1
   103    50   104    1
   104    50   105    1
   105    52   106    1
   106    52   107    1
   107    53   108    1
   108    53   109    1
   109    53   110    1
   110    54   111    1
   111    21    22    1
   112    21    20    1
   113    14    64    1
   114    14    13    1
