@<TRIPOS>MOLECULE
*****
 125 131 0 0 0
SMALL
GASTEIGER

@<TRIPOS>ATOM
      1 O           0.6423    0.2346    0.3711 O.2     1  UNL1       -0.2733
      2 C           1.8546    0.3286    0.1720 C.2     1  UNL1        0.2389
      3 N           2.7391    0.5293    1.2230 N.am    1  UNL1       -0.3119
      4 C           4.1873    0.6162    1.5630 C.3     1  UNL1        0.0271
      5 C           4.8435    1.9293    1.6619 C.3     1  UNL1        0.0247
      6 N           4.4038    2.3615    2.9234 N.pl3   1  UNL1       -0.3417
      7 C           5.3405    2.5769    3.8854 C.ar    1  UNL1        0.0402
      8 C           5.1945    2.0229    5.1601 C.ar    1  UNL1       -0.0401
      9 C           6.1356    2.2769    6.1729 C.ar    1  UNL1       -0.0593
     10 C           7.2591    3.0642    5.9195 C.ar    1  UNL1       -0.0488
     11 C           7.4056    3.5590    4.6372 C.ar    1  UNL1        0.0512
     12 C           8.4546    4.3780    4.0535 C.2     1  UNL1        0.2546
     13 N           8.0952    4.6727    2.7696 N.am    1  UNL1       -0.2220
     14 C           8.8130    5.5315    1.8288 C.3     1  UNL1        0.1109
     15 C           8.8713    6.9999    2.2113 C.3     1  UNL1       -0.0170
     16 C           9.7227    7.2117    3.4415 C.3     1  UNL1        0.0265
     17 C          11.0502    6.4806    3.3935 C.2     1  UNL1        0.2193
     18 N          11.1913    5.4962    2.4442 N.am    1  UNL1       -0.2548
     19 C          10.2222    4.9974    1.6025 C.2     1  UNL1        0.2402
     20 O          10.4795    4.1140    0.7884 O.2     1  UNL1       -0.2733
     21 O          11.9597    6.7407    4.1774 O.2     1  UNL1       -0.2754
     22 O           9.4697    4.6677    4.6522 O.2     1  UNL1       -0.2695
     23 C           6.4854    3.3169    3.6439 C.ar    1  UNL1        0.0702
     24 C           6.9366    4.0381    2.4372 C.2     1  UNL1        0.2563
     25 O           6.3884    4.0708    1.3506 O.2     1  UNL1       -0.2694
     26 C           2.2109   -0.1927   -1.1460 C.3     1  UNL1        0.1237
     27 O           1.8267   -1.5118   -1.2498 O.3     1  UNL1       -0.3683
     28 C           2.3698   -2.3035    0.0877 C.3     1  UNL1        0.0716
     29 C           3.8558   -2.2033    0.4114 C.3     1  UNL1        0.0711
     30 O           4.6665   -0.9774    0.2674 O.3     1  UNL1       -0.3752
     31 C           4.8866    0.2625   -1.1193 C.3     1  UNL1        0.0711
     32 C           4.7492   -0.1443   -2.6814 C.3     1  UNL1        0.0711
     33 O           4.3708   -1.6790   -2.8711 O.3     1  UNL1       -0.3752
     34 C           5.5942   -3.0410   -2.2053 C.3     1  UNL1        0.0711
     35 C           7.4098   -2.0931   -1.2328 C.3     1  UNL1        0.0711
     36 O           8.0426   -0.8792   -1.0331 O.3     1  UNL1       -0.3762
     37 C           7.6637   -0.1057   -2.0709 C.3     1  UNL1        0.0605
     38 C           7.9914   -0.7331   -3.4291 C.3     1  UNL1        0.0224
     39 N           7.5617   -2.0479   -3.9277 N.3     1  UNL1       -0.2977
     40 C           6.2146   -1.7936   -3.4215 C.3     1  UNL1        0.0118
     41 C           5.7939   -1.6578   -1.2963 C.3     1  UNL1        0.0120
     42 C           8.1711   -3.3763   -3.2810 C.3     1  UNL1        0.0118
     43 C           8.3674   -3.6660   -1.4113 C.3     1  UNL1        0.0120
     44 N           6.5371   -3.5616   -0.6266 N.3     1  UNL1       -0.2955
     45 C           5.3899   -4.9334   -1.1179 C.3     1  UNL1        0.0311
     46 C           5.0205   -5.2147   -2.7976 C.ar    1  UNL1        0.0498
     47 C           3.8573   -4.6744   -3.5392 C.ar    1  UNL1        0.1285
     48 O           2.7136   -3.9873   -3.2767 O.3     1  UNL1       -0.4947
     49 C           2.5630   -3.6315   -1.9971 C.3     1  UNL1        0.0788
     50 C           3.8200   -4.6706   -4.8979 C.ar    1  UNL1       -0.0116
     51 C           4.9744   -4.8851   -5.5879 C.ar    1  UNL1       -0.0090
     52 C           4.8676   -4.8865   -7.0123 C.ar    1  UNL1        0.0065
     53 C           4.4143   -3.7677   -7.8049 C.ar    1  UNL1       -0.0007
     54 C           4.3690   -3.9072   -9.1756 C.ar    1  UNL1        0.0653
     55 C           3.9853   -2.8209   -9.9080 C.ar    1  UNL1        0.0405
     56 N           3.9373   -1.5778   -9.3793 N.ar    1  UNL1       -0.2625
     57 C           4.1196   -1.4708   -8.0480 C.ar    1  UNL1        0.0282
     58 C           4.1097   -2.5508   -7.2140 C.ar    1  UNL1       -0.0351
     59 C           5.1987   -6.0344   -7.6078 C.ar    1  UNL1        0.0159
     60 N           5.1485   -6.1866   -8.9653 N.ar    1  UNL1       -0.3171
     61 C           5.5310   -7.4430   -9.5479 C.3     1  UNL1        0.0147
     62 C           4.7391   -5.1711   -9.8184 C.ar    1  UNL1        0.2603
     63 O           4.6947   -5.2740  -11.0388 O.2     1  UNL1       -0.2670
     64 C           6.1517   -5.2260   -4.9561 C.ar    1  UNL1       -0.0116
     65 C           6.1369   -5.5564   -3.5990 C.ar    1  UNL1        0.1285
     66 O           7.3864   -5.9939   -3.1733 O.3     1  UNL1       -0.4947
     67 C           7.7416   -5.7753   -1.8460 C.3     1  UNL1        0.0788
     68 H           2.2422    0.6439    2.0691 H       1  UNL1        0.1488
     69 H           4.6213   -0.2112    2.1657 H       1  UNL1        0.0477
     70 H           4.7282    0.5986    0.6990 H       1  UNL1        0.0477
     71 H           5.9419    1.7710    1.5242 H       1  UNL1        0.0476
     72 H           4.5098    2.5595    0.8245 H       1  UNL1        0.0476
     73 H           3.4170    2.2569    3.0895 H       1  UNL1        0.1461
     74 H           4.3423    1.3827    5.3841 H       1  UNL1        0.0636
     75 H           5.9803    1.8544    7.1629 H       1  UNL1        0.0618
     76 H           7.9844    3.2700    6.7001 H       1  UNL1        0.0625
     77 H           8.2881    5.5032    0.8652 H       1  UNL1        0.0602
     78 H           9.3059    7.5750    1.3823 H       1  UNL1        0.0293
     79 H           7.8612    7.3872    2.3831 H       1  UNL1        0.0293
     80 H           9.9331    8.2764    3.5463 H       1  UNL1        0.0359
     81 H           9.1587    6.8972    4.3218 H       1  UNL1        0.0359
     82 H          12.0946    5.0442    2.4133 H       1  UNL1        0.1575
     83 H           2.3560    0.4512   -2.0611 H       1  UNL1        0.0656
     84 H           3.0788   -0.5960   -0.7828 H       1  UNL1        0.0656
     85 H           1.7982   -1.9593    0.8749 H       1  UNL1        0.0583
     86 H           2.0891   -3.3785    0.0247 H       1  UNL1        0.0583
     87 H           4.4129   -3.0406    0.9265 H       1  UNL1        0.0583
     88 H           3.8413   -2.5886   -0.5285 H       1  UNL1        0.0583
     89 H           3.9402    0.3983   -1.3359 H       1  UNL1        0.0583
     90 H           4.8306    1.3051   -0.7946 H       1  UNL1        0.0583
     91 H           4.3311    0.4842   -3.4701 H       1  UNL1        0.0583
     92 H           5.6620    0.1969   -3.1716 H       1  UNL1        0.0583
     93 H           5.0495   -3.1176   -1.0679 H       1  UNL1        0.0583
     94 H           4.6465   -3.4576   -2.0776 H       1  UNL1        0.0583
     95 H           7.7144   -2.4887   -0.0413 H       1  UNL1        0.0583
     96 H           7.4574   -2.4164   -2.1510 H       1  UNL1        0.0583
     97 H           6.6521   -0.2169   -2.0638 H       1  UNL1        0.0572
     98 H           7.4165    0.8809   -1.7297 H       1  UNL1        0.0572
     99 H           7.5028   -0.0860   -4.1570 H       1  UNL1        0.0449
    100 H           9.0216   -0.8578   -3.3396 H       1  UNL1        0.0449
    101 H           5.7345   -1.1068   -4.1600 H       1  UNL1        0.0439
    102 H           5.5426   -2.6202   -3.9929 H       1  UNL1        0.0439
    103 H           6.2404   -0.9882   -0.5390 H       1  UNL1        0.0439
    104 H           4.7647   -1.5997   -1.2739 H       1  UNL1        0.0439
    105 H           7.2308   -3.8267   -3.4764 H       1  UNL1        0.0439
    106 H           8.9033   -3.9021   -3.8471 H       1  UNL1        0.0439
    107 H           9.1251   -2.8133   -1.2016 H       1  UNL1        0.0439
    108 H           8.5940   -4.2759   -0.5441 H       1  UNL1        0.0439
    109 H           5.5896   -5.8245   -0.5691 H       1  UNL1        0.0478
    110 H           4.5404   -4.5855   -0.5373 H       1  UNL1        0.0478
    111 H           3.0021   -4.2867   -1.2483 H       1  UNL1        0.0660
    112 H           3.0943   -2.7114   -1.9956 H       1  UNL1        0.0660
    113 H           1.5579   -3.3307   -1.7474 H       1  UNL1        0.0660
    114 H           2.8486   -4.5041   -5.3626 H       1  UNL1        0.0660
    115 H           3.7606   -2.9279  -10.9606 H       1  UNL1        0.0837
    116 H           4.3501   -0.4866   -7.6579 H       1  UNL1        0.0830
    117 H           3.9436   -2.4340   -6.1490 H       1  UNL1        0.0639
    118 H           5.5285   -6.8895   -7.0237 H       1  UNL1        0.0816
    119 H           4.6780   -7.8343  -10.1064 H       1  UNL1        0.0457
    120 H           6.3673   -7.2707  -10.2294 H       1  UNL1        0.0457
    121 H           5.8244   -8.1520   -8.7714 H       1  UNL1        0.0457
    122 H           7.0852   -5.2773   -5.5151 H       1  UNL1        0.0660
    123 H           7.2086   -4.8702   -1.9113 H       1  UNL1        0.0660
    124 H           7.2901   -5.9227   -0.8549 H       1  UNL1        0.0660
    125 H           8.8202   -5.5592   -1.6771 H       1  UNL1        0.0660
@<TRIPOS>BOND
     1     1     2    2
     2     2     3   am
     3     3     4    1
     4     4     5    1
     5     5     6    1
     6     6     7    1
     7     7     8   ar
     8     8     9   ar
     9     9    10   ar
    10    10    11   ar
    11    11    12    1
    12    12    13   am
    13    13    14    1
    14    14    15    1
    15    15    16    1
    16    16    17    1
    17    17    18   am
    18    18    19   am
    19    14    19    1
    20    19    20    2
    21    17    21    2
    22    12    22    2
    23    11    23   ar
    24     7    23   ar
    25    23    24    1
    26    13    24   am
    27    24    25    2
    28     2    26    1
    29    26    27    1
    30    27    28    1
    31    28    29    1
    32    29    30    1
    33    30    31    1
    34    31    32    1
    35    32    33    1
    36    33    34    1
    37    34    35    1
    38    35    36    1
    39    36    37    1
    40    37    38    1
    41    38    39    1
    42    39    40    1
    43    40    41    1
    44    39    42    1
    45    42    43    1
    46    43    44    1
    47    41    44    1
    48    44    45    1
    49    45    46    1
    50    46    47   ar
    51    47    48    1
    52    48    49    1
    53    47    50   ar
    54    50    51   ar
    55    51    52    1
    56    52    53   ar
    57    53    54   ar
    58    54    55   ar
    59    55    56   ar
    60    56    57   ar
    61    57    58   ar
    62    53    58   ar
    63    52    59   ar
    64    59    60   ar
    65    60    61    1
    66    60    62   ar
    67    54    62   ar
    68    62    63    2
    69    51    64   ar
    70    64    65   ar
    71    46    65   ar
    72    65    66    1
    73    66    67    1
    74     3    68    1
    75     4    69    1
    76     4    70    1
    77     5    71    1
    78     5    72    1
    79     6    73    1
    80     8    74    1
    81     9    75    1
    82    10    76    1
    83    14    77    1
    84    15    78    1
    85    15    79    1
    86    16    80    1
    87    16    81    1
    88    18    82    1
    89    26    83    1
    90    26    84    1
    91    28    85    1
    92    28    86    1
    93    29    87    1
    94    29    88    1
    95    31    89    1
    96    31    90    1
    97    32    91    1
    98    32    92    1
    99    34    93    1
   100    34    94    1
   101    35    95    1
   102    35    96    1
   103    37    97    1
   104    37    98    1
   105    38    99    1
   106    38   100    1
   107    40   101    1
   108    40   102    1
   109    41   103    1
   110    41   104    1
   111    42   105    1
   112    42   106    1
   113    43   107    1
   114    43   108    1
   115    45   109    1
   116    45   110    1
   117    49   111    1
   118    49   112    1
   119    49   113    1
   120    50   114    1
   121    55   115    1
   122    57   116    1
   123    58   117    1
   124    59   118    1
   125    61   119    1
   126    61   120    1
   127    61   121    1
   128    64   122    1
   129    67   123    1
   130    67   124    1
   131    67   125    1
