@<TRIPOS>MOLECULE
*****
 52 55 0 0 0
SMALL
GASTEIGER

@<TRIPOS>ATOM
      1 C           1.0398    0.0355    0.0089 C.3     1  UNL1        0.0788
      2 O           0.4530   -0.6030    1.1387 O.3     1  UNL1       -0.4947
      3 C           0.8990   -1.8604    1.4510 C.ar    1  UNL1        0.1285
      4 C          -0.0119   -2.7510    2.0675 C.ar    1  UNL1        0.0498
      5 C          -1.5071   -2.5555    1.8878 C.3     1  UNL1        0.0311
      6 N          -2.2311   -3.5004    1.0003 N.3     1  UNL1       -0.2949
      7 C          -1.4817   -3.9688   -0.1964 C.3     1  UNL1        0.0157
      8 C          -2.1871   -5.3437   -0.0021 C.3     1  UNL1        0.0306
      9 N          -1.2442   -6.4628   -0.1813 N.3     1  UNL1       -0.3251
     10 C          -2.2997   -4.9091    1.4691 C.3     1  UNL1        0.0157
     11 C           0.4709   -3.9200    2.6888 C.ar    1  UNL1        0.1285
     12 O          -0.3327   -4.5745    3.5852 O.3     1  UNL1       -0.4947
     13 C           0.0632   -5.8965    3.9652 C.3     1  UNL1        0.0788
     14 C           1.7483   -4.3471    2.4076 C.ar    1  UNL1       -0.0116
     15 C           2.6282   -3.4964    1.7547 C.ar    1  UNL1       -0.0090
     16 C           4.0042   -3.9547    1.6152 C.ar    1  UNL1        0.0065
     17 C           4.9435   -3.2551    2.2685 C.ar    1  UNL1        0.0159
     18 N           6.2804   -3.5867    2.2231 N.ar    1  UNL1       -0.3171
     19 C           6.7551   -4.6844    1.5062 C.ar    1  UNL1        0.2603
     20 C           5.7508   -5.4768    0.7754 C.ar    1  UNL1        0.0653
     21 C           6.1118   -6.5265   -0.0448 C.ar    1  UNL1        0.0405
     22 N           5.2557   -7.1154   -0.9172 N.ar    1  UNL1       -0.2625
     23 C           3.9703   -6.7127   -0.8786 C.ar    1  UNL1        0.0282
     24 C           3.4834   -5.8261    0.0545 C.ar    1  UNL1       -0.0351
     25 C           4.4086   -5.1239    0.8302 C.ar    1  UNL1       -0.0007
     26 O           7.9490   -4.9930    1.4317 O.2     1  UNL1       -0.2670
     27 C           7.2423   -2.7590    2.9229 C.3     1  UNL1        0.0147
     28 C           2.2245   -2.2422    1.3028 C.ar    1  UNL1       -0.0116
     29 H           0.6683    1.0650   -0.0214 H       1  UNL1        0.0660
     30 H           0.7173   -0.4727   -0.9036 H       1  UNL1        0.0660
     31 H           2.1309    0.1022    0.0516 H       1  UNL1        0.0660
     32 H          -1.9882   -2.5062    2.8716 H       1  UNL1        0.0478
     33 H          -1.6868   -1.5625    1.4524 H       1  UNL1        0.0478
     34 H          -1.7426   -3.4652   -1.1310 H       1  UNL1        0.0442
     35 H          -0.3880   -3.9856   -0.1210 H       1  UNL1        0.0442
     36 H          -3.1585   -5.4800   -0.4789 H       1  UNL1        0.0483
     37 H          -1.1175   -6.7138   -1.1607 H       1  UNL1        0.1185
     38 H          -0.3118   -6.3434    0.2109 H       1  UNL1        0.1185
     39 H          -1.4808   -5.3261    2.0312 H       1  UNL1        0.0442
     40 H          -3.2169   -5.1728    2.0014 H       1  UNL1        0.0442
     41 H           0.2435   -6.5397    3.0925 H       1  UNL1        0.0660
     42 H           0.9459   -5.8604    4.6097 H       1  UNL1        0.0660
     43 H          -0.7603   -6.3446    4.5264 H       1  UNL1        0.0660
     44 H           2.0916   -5.3340    2.6993 H       1  UNL1        0.0660
     45 H           4.6799   -2.3829    2.8660 H       1  UNL1        0.0816
     46 H           7.1263   -6.9120   -0.0511 H       1  UNL1        0.0837
     47 H           3.3213   -7.0883   -1.6637 H       1  UNL1        0.0830
     48 H           2.4161   -5.6426    0.1052 H       1  UNL1        0.0639
     49 H           7.7812   -3.3842    3.6397 H       1  UNL1        0.0457
     50 H           7.9522   -2.3536    2.1956 H       1  UNL1        0.0457
     51 H           6.7559   -1.9339    3.4522 H       1  UNL1        0.0457
     52 H           2.9639   -1.5951    0.8459 H       1  UNL1        0.0660
@<TRIPOS>BOND
     1     1     2    1
     2     2     3    1
     3     3     4   ar
     4     4     5    1
     5     5     6    1
     6     6     7    1
     7     7     8    1
     8     8     9    1
     9     8    10    1
    10     6    10    1
    11     4    11   ar
    12    11    12    1
    13    12    13    1
    14    11    14   ar
    15    14    15   ar
    16    15    16    1
    17    16    17   ar
    18    17    18   ar
    19    18    19   ar
    20    19    20   ar
    21    20    21   ar
    22    21    22   ar
    23    22    23   ar
    24    23    24   ar
    25    24    25   ar
    26    20    25   ar
    27    16    25   ar
    28    19    26    2
    29    18    27    1
    30    15    28   ar
    31     3    28   ar
    32     1    29    1
    33     1    30    1
    34     1    31    1
    35     5    32    1
    36     5    33    1
    37     7    34    1
    38     7    35    1
    39     8    36    1
    40     9    37    1
    41     9    38    1
    42    10    39    1
    43    10    40    1
    44    13    41    1
    45    13    42    1
    46    13    43    1
    47    14    44    1
    48    17    45    1
    49    21    46    1
    50    23    47    1
    51    24    48    1
    52    27    49    1
    53    27    50    1
    54    27    51    1
    55    28    52    1
