@<TRIPOS>MOLECULE
*****
 52 53 0 0 0
SMALL
GASTEIGER

@<TRIPOS>ATOM
      1 BR         -1.5658    0.0235   -0.1188 Br      1  UNL1       -0.0501
      2 C           0.2990   -0.0341    0.2084 C.ar    1  UNL1        0.0248
      3 C           1.0068    1.1297    0.4856 C.ar    1  UNL1       -0.0054
      4 C           2.3953    1.1029    0.7949 C.ar    1  UNL1        0.1290
      5 O           2.8750    2.3602    1.0953 O.3     1  UNL1       -0.4946
      6 C           4.2557    2.6780    1.1736 C.3     1  UNL1        0.0788
      7 C           3.1287   -0.0657    0.4912 C.ar    1  UNL1        0.0498
      8 C           4.6457   -0.0357    0.0956 C.3     1  UNL1        0.0311
      9 N           5.2198    0.6470   -1.1924 N.3     1  UNL1       -0.2950
     10 C           4.8267   -0.1289   -2.3543 C.3     1  UNL1        0.0152
     11 C           3.3256    0.0062   -2.5313 C.3     1  UNL1        0.0306
     12 N           2.8499    1.4118   -2.7879 N.am    1  UNL1       -0.2650
     13 C           1.8264    1.9363   -3.5609 C.2     1  UNL1        0.4034
     14 O           1.3216    1.2356   -4.6089 O.3     1  UNL1       -0.4445
     15 C           1.7376   -0.1068   -4.8770 C.3     1  UNL1        0.1068
     16 C           3.2736   -0.1034   -5.2138 C.3     1  UNL1       -0.0253
     17 C           1.0447   -0.9917   -3.7788 C.3     1  UNL1       -0.0253
     18 C           1.1434   -0.6034   -6.1770 C.3     1  UNL1       -0.0253
     19 O           1.3961    3.0988   -3.3771 O.2     1  UNL1       -0.2262
     20 C           3.4064    2.3020   -1.8122 C.3     1  UNL1        0.0306
     21 C           4.9045    2.0728   -1.6437 C.3     1  UNL1        0.0152
     22 C           2.3696   -1.2786    0.3027 C.ar    1  UNL1        0.1290
     23 O           3.0923   -2.4279    0.0679 O.3     1  UNL1       -0.4946
     24 C           2.3652   -3.6536   -0.0043 C.3     1  UNL1        0.0788
     25 C           0.9639   -1.2496    0.1839 C.ar    1  UNL1       -0.0054
     26 H           0.5065    2.0916    0.3437 H       1  UNL1        0.0665
     27 H           4.6562    2.5184    2.1656 H       1  UNL1        0.0660
     28 H           4.9115    2.0954    0.5684 H       1  UNL1        0.0660
     29 H           4.4160    3.6927    0.7881 H       1  UNL1        0.0660
     30 H           5.1994    0.2950    0.9786 H       1  UNL1        0.0478
     31 H           4.9886   -1.0778    0.0260 H       1  UNL1        0.0478
     32 H           5.3445    0.2709   -3.2373 H       1  UNL1        0.0442
     33 H           5.1300   -1.1773   -2.3055 H       1  UNL1        0.0442
     34 H           2.7668   -0.3390   -1.6918 H       1  UNL1        0.0478
     35 H           3.0996   -0.7885   -3.2065 H       1  UNL1        0.0478
     36 H           3.8757    0.5707   -4.6085 H       1  UNL1        0.0268
     37 H           3.7086   -1.1073   -5.1630 H       1  UNL1        0.0268
     38 H           3.5008    0.3534   -6.1787 H       1  UNL1        0.0268
     39 H          -0.0430   -1.0091   -3.9052 H       1  UNL1        0.0268
     40 H           1.4280   -2.0159   -3.7692 H       1  UNL1        0.0268
     41 H           1.0953   -0.5909   -2.7608 H       1  UNL1        0.0268
     42 H           0.0558   -0.5552   -6.1565 H       1  UNL1        0.0268
     43 H           1.4960    0.0049   -7.0128 H       1  UNL1        0.0268
     44 H           1.4682   -1.6405   -6.3267 H       1  UNL1        0.0268
     45 H           2.9687    1.8652   -0.9758 H       1  UNL1        0.0478
     46 H           3.0077    3.3196   -1.7222 H       1  UNL1        0.0478
     47 H           5.4313    2.8225   -1.0503 H       1  UNL1        0.0442
     48 H           5.3394    2.2822   -2.6377 H       1  UNL1        0.0442
     49 H           1.7330   -3.7920    0.8792 H       1  UNL1        0.0660
     50 H           1.7738   -3.7088   -0.9261 H       1  UNL1        0.0660
     51 H           3.0885   -4.4735   -0.0275 H       1  UNL1        0.0660
     52 H           0.3816   -2.1400   -0.0380 H       1  UNL1        0.0665
@<TRIPOS>BOND
     1     1     2    1
     2     2     3   ar
     3     3     4   ar
     4     4     5    1
     5     5     6    1
     6     4     7   ar
     7     7     8    1
     8     8     9    1
     9     9    10    1
    10    10    11    1
    11    11    12    1
    12    12    13   am
    13    13    14    1
    14    14    15    1
    15    15    16    1
    16    15    17    1
    17    15    18    1
    18    13    19    2
    19    12    20    1
    20    20    21    1
    21     9    21    1
    22     7    22   ar
    23    22    23    1
    24    23    24    1
    25    22    25   ar
    26     2    25   ar
    27     3    26    1
    28     6    27    1
    29     6    28    1
    30     6    29    1
    31     8    30    1
    32     8    31    1
    33    10    32    1
    34    10    33    1
    35    11    34    1
    36    11    35    1
    37    16    36    1
    38    16    37    1
    39    16    38    1
    40    17    39    1
    41    17    40    1
    42    17    41    1
    43    18    42    1
    44    18    43    1
    45    18    44    1
    46    20    45    1
    47    20    46    1
    48    21    47    1
    49    21    48    1
    50    24    49    1
    51    24    50    1
    52    24    51    1
    53    25    52    1
