@<TRIPOS>MOLECULE
*****
 108 111 0 0 0
SMALL
GASTEIGER

@<TRIPOS>ATOM
      1 C           1.1087   -0.1680   -0.1042 C.3     1  UNL1        0.0788
      2 O           0.7012   -1.1914   -1.0875 O.3     1  UNL1       -0.4947
      3 C           1.2231   -1.2650   -2.3951 C.ar    1  UNL1        0.1285
      4 C           2.4542   -0.6239   -2.6854 C.ar    1  UNL1       -0.0116
      5 C           2.8191   -0.2510   -4.0529 C.ar    1  UNL1       -0.0090
      6 C           4.0815    0.4157   -4.2920 C.ar    1  UNL1        0.0065
      7 C           5.0065   -0.5038   -4.0556 C.ar    1  UNL1        0.0159
      8 N           6.3233   -0.2898   -4.2846 N.ar    1  UNL1       -0.3171
      9 C           7.2181   -1.3717   -4.0016 C.3     1  UNL1        0.0147
     10 C           6.8239    0.8987   -4.7984 C.ar    1  UNL1        0.2603
     11 C           5.8465    1.9577   -5.0535 C.ar    1  UNL1        0.0653
     12 C           4.5193    1.7065   -4.8141 C.ar    1  UNL1       -0.0007
     13 C           3.6661    2.7434   -5.0490 C.ar    1  UNL1       -0.0351
     14 C           4.1215    4.0402   -5.1503 C.ar    1  UNL1        0.0282
     15 N           5.3945    4.2900   -5.4695 N.ar    1  UNL1       -0.2625
     16 C           6.2182    3.2129   -5.4984 C.ar    1  UNL1        0.0405
     17 O           8.0133    1.1084   -5.0152 O.2     1  UNL1       -0.2670
     18 C           2.0354   -0.5440   -5.1942 C.ar    1  UNL1       -0.0116
     19 C           0.8473   -1.3096   -5.0302 C.ar    1  UNL1        0.1285
     20 O           0.0816   -1.4877   -6.2085 O.3     1  UNL1       -0.4947
     21 C           0.3182   -0.6021   -7.4551 C.3     1  UNL1        0.0788
     22 C           0.3364   -1.6502   -3.5779 C.ar    1  UNL1        0.0498
     23 C          -1.2336   -1.5952   -3.2617 C.3     1  UNL1        0.0311
     24 N          -1.6636   -0.2691   -3.5148 N.3     1  UNL1       -0.2955
     25 C          -0.8317    0.5478   -2.5585 C.3     1  UNL1        0.0120
     26 C           0.4890    1.2024   -3.4399 C.3     1  UNL1        0.0118
     27 N           0.3783    1.6650   -4.9259 N.3     1  UNL1       -0.2977
     28 C           0.6525    3.1585   -5.0723 C.3     1  UNL1        0.0224
     29 C          -0.0796    4.2325   -4.3206 C.3     1  UNL1        0.0605
     30 O          -0.3282    4.2119   -2.9467 O.3     1  UNL1       -0.3762
     31 C          -1.0811    3.0766   -2.6946 C.3     1  UNL1        0.0711
     32 C          -1.8272    2.3547   -3.8641 C.3     1  UNL1        0.0711
     33 O          -2.2188    2.6660   -5.1477 O.3     1  UNL1       -0.3752
     34 C          -2.7524    3.9084   -5.0954 C.3     1  UNL1        0.0711
     35 C          -3.3243    4.1821   -3.5143 C.3     1  UNL1        0.0711
     36 O          -3.4891    3.3289   -2.1204 O.3     1  UNL1       -0.3752
     37 C          -3.8689    1.8396   -2.1997 C.3     1  UNL1        0.0711
     38 C          -4.3700    1.3968   -3.5518 C.3     1  UNL1        0.0711
     39 O          -4.4097    2.1409   -4.7933 O.3     1  UNL1       -0.3752
     40 C          -5.2546    3.2495   -5.1523 C.3     1  UNL1        0.0711
     41 C          -6.4167    3.5071   -4.2119 C.3     1  UNL1        0.0717
     42 O          -6.4345    2.9259   -2.9008 O.3     1  UNL1       -0.3664
     43 C          -6.9610    1.5824   -2.7681 C.3     1  UNL1        0.1445
     44 C          -7.9223    0.8696   -3.6487 C.2     1  UNL1        0.3336
     45 O          -7.5312   -0.0129   -4.6944 O.3     1  UNL1       -0.4573
     46 C          -6.1721   -0.4181   -5.3417 C.3     1  UNL1        0.1053
     47 C          -5.6664    0.7982   -6.0591 C.3     1  UNL1       -0.0254
     48 C          -5.3514   -1.2853   -4.3289 C.3     1  UNL1       -0.0254
     49 C          -6.1637   -1.1970   -6.6397 C.3     1  UNL1       -0.0254
     50 O          -9.1456    1.0870   -3.3940 O.2     1  UNL1       -0.2482
     51 C          -0.8220    1.0740   -5.6549 C.3     1  UNL1        0.0118
     52 C          -1.9134    0.1414   -5.0061 C.3     1  UNL1        0.0120
     53 H           0.7055   -0.4806    0.8704 H       1  UNL1        0.0660
     54 H           0.6998    0.8570   -0.2438 H       1  UNL1        0.0660
     55 H           2.1882   -0.0896   -0.0129 H       1  UNL1        0.0660
     56 H           3.0376   -0.1502   -1.8931 H       1  UNL1        0.0660
     57 H           4.7105   -1.4873   -3.6904 H       1  UNL1        0.0816
     58 H           7.7256   -1.6306   -4.9297 H       1  UNL1        0.0457
     59 H           7.9244   -1.0224   -3.2501 H       1  UNL1        0.0457
     60 H           6.6719   -2.2426   -3.6213 H       1  UNL1        0.0457
     61 H           2.6619    2.4481   -5.1552 H       1  UNL1        0.0639
     62 H           3.4797    4.8955   -4.9428 H       1  UNL1        0.0830
     63 H           7.2219    3.3891   -5.8606 H       1  UNL1        0.0837
     64 H           2.1636    0.1590   -6.0446 H       1  UNL1        0.0660
     65 H           0.5447    0.4998   -7.3495 H       1  UNL1        0.0660
     66 H           1.1752   -0.9896   -7.9523 H       1  UNL1        0.0660
     67 H          -0.6345   -0.5704   -8.0278 H       1  UNL1        0.0660
     68 H          -1.9737   -2.1087   -3.8600 H       1  UNL1        0.0478
     69 H          -1.5588   -1.6440   -2.1853 H       1  UNL1        0.0478
     70 H          -1.5287    1.1788   -1.9754 H       1  UNL1        0.0439
     71 H          -0.6727    0.1768   -1.5330 H       1  UNL1        0.0439
     72 H           0.8859    0.3321   -3.7036 H       1  UNL1        0.0439
     73 H           1.2899    1.7434   -2.8755 H       1  UNL1        0.0439
     74 H           1.5398    3.4251   -4.5497 H       1  UNL1        0.0449
     75 H           0.5695    3.4265   -6.1369 H       1  UNL1        0.0449
     76 H          -0.3826    5.2006   -4.6589 H       1  UNL1        0.0572
     77 H          -0.8218    3.7040   -4.7782 H       1  UNL1        0.0572
     78 H          -0.4768    2.5392   -3.2669 H       1  UNL1        0.0583
     79 H          -0.6205    2.6173   -1.7976 H       1  UNL1        0.0583
     80 H          -2.2924    1.4156   -3.6908 H       1  UNL1        0.0583
     81 H          -2.7112    2.4769   -3.3333 H       1  UNL1        0.0583
     82 H          -2.0985    4.6900   -4.8798 H       1  UNL1        0.0583
     83 H          -2.5211    4.2391   -6.1404 H       1  UNL1        0.0583
     84 H          -3.6642    5.1804   -3.4774 H       1  UNL1        0.0583
     85 H          -4.1430    3.6134   -3.6785 H       1  UNL1        0.0583
     86 H          -3.1733    0.9956   -2.2598 H       1  UNL1        0.0583
     87 H          -3.9044    1.3884   -1.1907 H       1  UNL1        0.0583
     88 H          -4.1170    0.3467   -3.8225 H       1  UNL1        0.0583
     89 H          -5.0953    1.4333   -3.0326 H       1  UNL1        0.0583
     90 H          -4.7723    4.2259   -5.1092 H       1  UNL1        0.0583
     91 H          -5.2307    3.3440   -6.2574 H       1  UNL1        0.0583
     92 H          -6.3458    4.5912   -4.0483 H       1  UNL1        0.0583
     93 H          -7.3157    3.2203   -4.7149 H       1  UNL1        0.0583
     94 H          -6.3904    0.8775   -3.3224 H       1  UNL1        0.0676
     95 H          -6.5969    1.1872   -1.7746 H       1  UNL1        0.0676
     96 H          -6.0505    1.4228   -5.3023 H       1  UNL1        0.0268
     97 H          -4.6055    0.7396   -6.3656 H       1  UNL1        0.0268
     98 H          -6.1318    1.4056   -6.8521 H       1  UNL1        0.0268
     99 H          -5.7961   -2.2715   -4.1909 H       1  UNL1        0.0268
    100 H          -4.3103   -1.4532   -4.6528 H       1  UNL1        0.0268
    101 H          -5.3525   -0.9272   -3.2900 H       1  UNL1        0.0268
    102 H          -6.6440   -2.1422   -6.4893 H       1  UNL1        0.0268
    103 H          -6.6528   -0.6195   -7.4363 H       1  UNL1        0.0268
    104 H          -5.1094   -1.3409   -6.9748 H       1  UNL1        0.0268
    105 H          -0.6773    0.1535   -6.0708 H       1  UNL1        0.0439
    106 H          -1.0305    1.5685   -6.6358 H       1  UNL1        0.0439
    107 H          -2.5897   -0.4566   -5.6650 H       1  UNL1        0.0439
    108 H          -2.7725    0.7812   -5.1537 H       1  UNL1        0.0439
@<TRIPOS>BOND
     1     1     2    1
     2     2     3    1
     3     3     4   ar
     4     4     5   ar
     5     5     6    1
     6     6     7   ar
     7     7     8   ar
     8     8     9    1
     9     8    10   ar
    10    10    11   ar
    11    11    12   ar
    12     6    12   ar
    13    12    13   ar
    14    13    14   ar
    15    14    15   ar
    16    15    16   ar
    17    11    16   ar
    18    10    17    2
    19     5    18   ar
    20    18    19   ar
    21    19    20    1
    22    20    21    1
    23     3    22   ar
    24    19    22   ar
    25    22    23    1
    26    23    24    1
    27    24    25    1
    28    25    26    1
    29    26    27    1
    30    27    28    1
    31    28    29    1
    32    29    30    1
    33    30    31    1
    34    31    32    1
    35    32    33    1
    36    33    34    1
    37    34    35    1
    38    35    36    1
    39    36    37    1
    40    37    38    1
    41    38    39    1
    42    39    40    1
    43    40    41    1
    44    41    42    1
    45    42    43    1
    46    43    44    1
    47    44    45    1
    48    45    46    1
    49    46    47    1
    50    46    48    1
    51    46    49    1
    52    44    50    2
    53    27    51    1
    54    51    52    1
    55    24    52    1
    56     1    53    1
    57     1    54    1
    58     1    55    1
    59     4    56    1
    60     7    57    1
    61     9    58    1
    62     9    59    1
    63     9    60    1
    64    13    61    1
    65    14    62    1
    66    16    63    1
    67    18    64    1
    68    21    65    1
    69    21    66    1
    70    21    67    1
    71    23    68    1
    72    23    69    1
    73    25    70    1
    74    25    71    1
    75    26    72    1
    76    26    73    1
    77    28    74    1
    78    28    75    1
    79    29    76    1
    80    29    77    1
    81    31    78    1
    82    31    79    1
    83    32    80    1
    84    32    81    1
    85    34    82    1
    86    34    83    1
    87    35    84    1
    88    35    85    1
    89    37    86    1
    90    37    87    1
    91    38    88    1
    92    38    89    1
    93    40    90    1
    94    40    91    1
    95    41    92    1
    96    41    93    1
    97    43    94    1
    98    43    95    1
    99    47    96    1
   100    47    97    1
   101    47    98    1
   102    48    99    1
   103    48   100    1
   104    48   101    1
   105    49   102    1
   106    49   103    1
   107    49   104    1
   108    51   105    1
   109    51   106    1
   110    52   107    1
   111    52   108    1
