@<TRIPOS>MOLECULE
*****
 122 128 0 0 0
SMALL
GASTEIGER

@<TRIPOS>ATOM
      1 O           1.2906   -0.1164   -0.1616 O.2     1  UNL1       -0.2733
      2 C           2.4526   -0.2795   -0.0772 C.2     1  UNL1        0.2391
      3 C           3.5651    0.6867    0.2308 C.3     1  UNL1        0.1237
      4 O           4.1589    0.7041    1.4892 O.3     1  UNL1       -0.3683
      5 C           3.0668    0.6456    2.4695 C.3     1  UNL1        0.0716
      6 C           1.6246    1.4236    2.1955 C.3     1  UNL1        0.0711
      7 O           0.9469    1.9375    0.9819 O.3     1  UNL1       -0.3752
      8 C           1.7520    2.7138   -0.1301 C.3     1  UNL1        0.0711
      9 C           3.2903    3.4284    0.0787 C.3     1  UNL1        0.0711
     10 O           3.9164    3.1998    1.3887 O.3     1  UNL1       -0.3752
     11 C           3.0861    3.4022    2.6097 C.3     1  UNL1        0.0711
     12 C           1.3101    3.9555    2.1764 C.3     1  UNL1        0.0711
     13 O           0.5186    4.6708    1.1564 O.3     1  UNL1       -0.3762
     14 C           1.3560    5.4340    0.2823 C.3     1  UNL1        0.0605
     15 C           2.4856    6.5009    0.4341 C.3     1  UNL1        0.0224
     16 N           3.4359    6.6210    1.5465 N.3     1  UNL1       -0.2977
     17 C           3.4824    5.6188    2.5980 C.3     1  UNL1        0.0118
     18 C           2.0768    5.3969    3.7231 C.3     1  UNL1        0.0120
     19 C           2.8870    7.6743    2.2952 C.3     1  UNL1        0.0118
     20 C           1.4598    7.3841    2.8923 C.3     1  UNL1        0.0120
     21 N           1.5038    6.4781    4.2901 N.3     1  UNL1       -0.2955
     22 C           2.3663    6.3403    5.4925 C.3     1  UNL1        0.0311
     23 C           3.8642    6.2915    5.3304 C.ar    1  UNL1        0.0498
     24 C           4.6753    5.1294    5.4771 C.ar    1  UNL1        0.1285
     25 O           4.3350    3.8301    5.8308 O.3     1  UNL1       -0.4947
     26 C           3.0011    3.4030    6.0988 C.3     1  UNL1        0.0788
     27 C           6.0338    5.2652    5.1124 C.ar    1  UNL1       -0.0116
     28 C           6.5104    6.3677    4.3675 C.ar    1  UNL1       -0.0090
     29 C           7.8884    6.3761    3.8506 C.ar    1  UNL1        0.0065
     30 C           8.5029    5.3309    3.0264 C.ar    1  UNL1       -0.0007
     31 C           9.8359    5.4327    2.6495 C.ar    1  UNL1        0.0653
     32 C          10.3650    4.4516    1.8437 C.ar    1  UNL1        0.0405
     33 N           9.5903    3.5504    1.1962 N.ar    1  UNL1       -0.2625
     34 C           8.2765    3.5512    1.5002 C.ar    1  UNL1        0.0282
     35 C           7.7455    4.2723    2.5409 C.ar    1  UNL1       -0.0351
     36 C           8.6552    7.4318    4.1768 C.ar    1  UNL1        0.0159
     37 N           9.9785    7.5504    3.8147 N.ar    1  UNL1       -0.3171
     38 C          10.7360    8.7043    4.2427 C.3     1  UNL1        0.0147
     39 C          10.6563    6.5853    3.0635 C.ar    1  UNL1        0.2603
     40 O          11.8205    6.6625    2.7329 O.2     1  UNL1       -0.2670
     41 C           5.6710    7.4526    4.1507 C.ar    1  UNL1       -0.0116
     42 C           4.4195    7.4895    4.8078 C.ar    1  UNL1        0.1285
     43 O           3.7120    8.6656    4.5848 O.3     1  UNL1       -0.4947
     44 C           2.3144    8.9331    4.6888 C.3     1  UNL1        0.0788
     45 N           3.1024   -1.4632   -0.0770 N.am    1  UNL1       -0.3093
     46 C           2.3217   -2.5965   -0.2699 C.3     1  UNL1        0.0369
     47 C           2.6797   -3.1966   -1.5866 C.ar    1  UNL1       -0.0302
     48 C           2.3324   -4.5233   -1.7950 C.ar    1  UNL1       -0.0552
     49 C           2.7463   -5.1939   -2.9572 C.ar    1  UNL1       -0.0348
     50 C           3.3880   -4.5134   -3.9986 C.ar    1  UNL1        0.1085
     51 S           3.4329   -5.2799   -5.7001 S.O2    1  UNL1        0.0724
     52 N           4.3748   -6.6993   -5.7722 N.pl3   1  UNL1       -0.2142
     53 C           3.9191   -8.1059   -6.3452 C.ar    1  UNL1        0.0719
     54 C           4.2644   -9.0386   -5.2323 C.ar    1  UNL1       -0.0373
     55 C           4.1126  -10.3694   -5.4521 C.ar    1  UNL1       -0.0592
     56 C           3.3465  -10.7193   -6.4894 C.ar    1  UNL1       -0.0511
     57 C           2.7424   -9.6718   -7.4137 C.ar    1  UNL1        0.0198
     58 C           3.3950   -8.5219   -7.7606 C.ar    1  UNL1        0.0706
     59 N           2.9739   -9.6002   -9.2584 N.ar    1  UNL1       -0.3578
     60 C           2.0271  -10.6424   -8.9017 C.ar    1  UNL1        0.0212
     61 C           1.7286   -9.4480   -8.3109 C.ar    1  UNL1        0.0660
     62 CL          1.7158   -7.6015   -9.5620 Cl      1  UNL1       -0.0814
     63 O           2.0983   -5.6121   -6.0138 O.2     1  UNL1       -0.1500
     64 O           4.2031   -4.2742   -6.4728 O.2     1  UNL1       -0.1500
     65 C           3.6905   -3.1465   -3.8068 C.ar    1  UNL1       -0.0348
     66 C           3.3472   -2.4979   -2.6080 C.ar    1  UNL1       -0.0552
     67 H           4.0420    1.1616   -0.6359 H       1  UNL1        0.0656
     68 H           2.8906    1.3768    0.5164 H       1  UNL1        0.0656
     69 H           2.7292   -0.3587    2.5091 H       1  UNL1        0.0583
     70 H           3.5743    0.9353    3.4126 H       1  UNL1        0.0583
     71 H           1.1795    1.7631    3.1720 H       1  UNL1        0.0583
     72 H           2.1923    2.1856    1.8750 H       1  UNL1        0.0583
     73 H           2.1803    2.0104   -0.8002 H       1  UNL1        0.0583
     74 H           1.0306    2.8934   -0.9243 H       1  UNL1        0.0583
     75 H           4.0548    3.4025   -0.7227 H       1  UNL1        0.0583
     76 H           3.2585    4.4408   -0.3284 H       1  UNL1        0.0583
     77 H           2.8878    2.6231    3.3610 H       1  UNL1        0.0583
     78 H           3.8008    3.6280    3.4554 H       1  UNL1        0.0583
     79 H           0.5886    3.7979    3.0044 H       1  UNL1        0.0583
     80 H           1.7275    4.8973    2.1087 H       1  UNL1        0.0583
     81 H           2.0744    4.7600    0.5199 H       1  UNL1        0.0572
     82 H           1.0721    5.2290   -0.7326 H       1  UNL1        0.0572
     83 H           3.1565    6.4585   -0.4376 H       1  UNL1        0.0449
     84 H           1.9532    7.4301    0.3659 H       1  UNL1        0.0449
     85 H           3.6269    4.9684    1.7969 H       1  UNL1        0.0439
     86 H           4.4240    5.3386    3.1033 H       1  UNL1        0.0439
     87 H           1.0317    5.4539    3.3528 H       1  UNL1        0.0439
     88 H           1.9017    4.4120    4.1434 H       1  UNL1        0.0439
     89 H           3.5673    7.5078    3.0504 H       1  UNL1        0.0439
     90 H           3.2512    8.6266    1.9340 H       1  UNL1        0.0439
     91 H           0.7862    6.9943    2.0930 H       1  UNL1        0.0439
     92 H           0.7556    8.2095    3.0458 H       1  UNL1        0.0439
     93 H           2.1130    6.9996    6.2918 H       1  UNL1        0.0478
     94 H           2.0100    5.4133    5.9310 H       1  UNL1        0.0478
     95 H           2.5096    3.9785    6.8777 H       1  UNL1        0.0660
     96 H           2.4091    3.4033    5.2181 H       1  UNL1        0.0660
     97 H           2.8639    2.3350    6.2839 H       1  UNL1        0.0660
     98 H           6.7473    4.4871    5.3764 H       1  UNL1        0.0660
     99 H          11.4330    4.3911    1.6669 H       1  UNL1        0.0837
    100 H           7.6159    3.0003    0.8382 H       1  UNL1        0.0830
    101 H           6.7438    4.0563    2.8894 H       1  UNL1        0.0639
    102 H           8.2474    8.2455    4.7703 H       1  UNL1        0.0816
    103 H          11.5803    8.3609    4.8473 H       1  UNL1        0.0457
    104 H          11.1147    9.2246    3.3586 H       1  UNL1        0.0457
    105 H          10.1142    9.3831    4.8320 H       1  UNL1        0.0457
    106 H           5.9507    8.2198    3.4134 H       1  UNL1        0.0660
    107 H           1.4644    8.2774    4.6285 H       1  UNL1        0.0660
    108 H           2.0041    8.8891    5.7074 H       1  UNL1        0.0660
    109 H           1.9777    9.5105    3.8092 H       1  UNL1        0.0660
    110 H           4.1084   -1.4262   -0.0873 H       1  UNL1        0.1491
    111 H           2.5990   -3.2149    0.5835 H       1  UNL1        0.0512
    112 H           1.2514   -2.3639   -0.2185 H       1  UNL1        0.0512
    113 H           1.7223   -5.0216   -1.0408 H       1  UNL1        0.0621
    114 H           2.5547   -6.2521   -3.0345 H       1  UNL1        0.0637
    115 H           5.2353   -6.6561   -5.2157 H       1  UNL1        0.1738
    116 H           4.6602   -8.7342   -4.2697 H       1  UNL1        0.0637
    117 H           4.4986  -11.1556   -4.7734 H       1  UNL1        0.0618
    118 H           3.0385  -11.7364   -6.6274 H       1  UNL1        0.0625
    119 H           2.3093   -9.1801  -10.0504 H       1  UNL1        0.1654
    120 H           2.3459  -11.6751   -8.5028 H       1  UNL1        0.0822
    121 H           4.1780   -2.5500   -4.5751 H       1  UNL1        0.0637
    122 H           3.5810   -1.4366   -2.4893 H       1  UNL1        0.0621
@<TRIPOS>BOND
     1     1     2    2
     2     2     3    1
     3     3     4    1
     4     4     5    1
     5     5     6    1
     6     6     7    1
     7     7     8    1
     8     8     9    1
     9     9    10    1
    10    10    11    1
    11    11    12    1
    12    12    13    1
    13    13    14    1
    14    14    15    1
    15    15    16    1
    16    16    17    1
    17    17    18    1
    18    16    19    1
    19    19    20    1
    20    20    21    1
    21    18    21    1
    22    21    22    1
    23    22    23    1
    24    23    24   ar
    25    24    25    1
    26    25    26    1
    27    24    27   ar
    28    27    28   ar
    29    28    29    1
    30    29    30   ar
    31    30    31   ar
    32    31    32   ar
    33    32    33   ar
    34    33    34   ar
    35    34    35   ar
    36    30    35   ar
    37    29    36   ar
    38    36    37   ar
    39    37    38    1
    40    37    39   ar
    41    31    39   ar
    42    39    40    2
    43    28    41   ar
    44    41    42   ar
    45    23    42   ar
    46    42    43    1
    47    43    44    1
    48     2    45   am
    49    45    46    1
    50    46    47    1
    51    47    48   ar
    52    48    49   ar
    53    49    50   ar
    54    50    51    1
    55    51    52    1
    56    52    53    1
    57    53    54   ar
    58    54    55   ar
    59    55    56   ar
    60    56    57   ar
    61    57    58   ar
    62    53    58   ar
    63    58    59   ar
    64    59    60   ar
    65    60    61   ar
    66    57    61   ar
    67    61    62    1
    68    51    63    2
    69    51    64    2
    70    50    65   ar
    71    65    66   ar
    72    47    66   ar
    73     3    67    1
    74     3    68    1
    75     5    69    1
    76     5    70    1
    77     6    71    1
    78     6    72    1
    79     8    73    1
    80     8    74    1
    81     9    75    1
    82     9    76    1
    83    11    77    1
    84    11    78    1
    85    12    79    1
    86    12    80    1
    87    14    81    1
    88    14    82    1
    89    15    83    1
    90    15    84    1
    91    17    85    1
    92    17    86    1
    93    18    87    1
    94    18    88    1
    95    19    89    1
    96    19    90    1
    97    20    91    1
    98    20    92    1
    99    22    93    1
   100    22    94    1
   101    26    95    1
   102    26    96    1
   103    26    97    1
   104    27    98    1
   105    32    99    1
   106    34   100    1
   107    35   101    1
   108    36   102    1
   109    38   103    1
   110    38   104    1
   111    38   105    1
   112    41   106    1
   113    44   107    1
   114    44   108    1
   115    44   109    1
   116    45   110    1
   117    46   111    1
   118    46   112    1
   119    48   113    1
   120    49   114    1
   121    52   115    1
   122    54   116    1
   123    55   117    1
   124    56   118    1
   125    59   119    1
   126    60   120    1
   127    65   121    1
   128    66   122    1
