@<TRIPOS>MOLECULE
*****
 138 144 0 0 0
SMALL
GASTEIGER

@<TRIPOS>ATOM
      1 C           0.2952    0.0101   -2.3791 C.3     1  UNL1       -0.0579
      2 C           0.6023   -1.4695   -2.5993 C.3     1  UNL1       -0.0108
      3 C          -0.5884   -2.2325   -3.2034 C.3     1  UNL1       -0.0579
      4 C           1.6962   -1.4398   -3.6599 C.3     1  UNL1       -0.0579
      5 C           1.0183   -2.1721   -1.2741 C.3     1  UNL1        0.1045
      6 N           0.3088   -1.5466   -0.0955 N.am    1  UNL1       -0.3016
      7 C          -1.0648   -1.1547   -0.0723 C.2     1  UNL1        0.2394
      8 C          -1.8126   -0.1020    0.8782 C.3     1  UNL1        0.1237
      9 O          -1.8427    1.2495    0.5228 O.3     1  UNL1       -0.3683
     10 C          -0.5743    1.7709    0.2087 C.3     1  UNL1        0.0716
     11 C           0.6517    1.4027    0.9543 C.3     1  UNL1        0.0711
     12 O           0.8858    0.1838    1.5993 O.3     1  UNL1       -0.3752
     13 C           0.1110   -0.3420    2.6399 C.3     1  UNL1        0.0711
     14 C          -0.6202    0.4837    3.7397 C.3     1  UNL1        0.0716
     15 O          -1.1603    1.8186    3.5764 O.3     1  UNL1       -0.3683
     16 C          -0.2283    2.8402    3.2639 C.3     1  UNL1        0.1239
     17 C           1.1185    2.6871    4.0138 C.2     1  UNL1        0.2414
     18 N           2.0063    1.7823    3.4529 N.am    1  UNL1       -0.2972
     19 C           2.3738    0.6227    4.2334 C.3     1  UNL1        0.0275
     20 C           2.7589   -0.6571    3.4412 C.3     1  UNL1        0.0151
     21 N           3.7543   -0.3719    2.4146 N.3     1  UNL1       -0.2950
     22 C           5.0040    0.1383    2.9018 C.3     1  UNL1        0.0311
     23 C           5.1624    1.4142    3.6625 C.ar    1  UNL1        0.0498
     24 C           5.3263    2.5636    2.9436 C.ar    1  UNL1        0.1285
     25 O           5.3080    2.8080    1.5505 O.3     1  UNL1       -0.4947
     26 C           5.6577    1.8015    0.6101 C.3     1  UNL1        0.0788
     27 C           5.1304    3.6561    3.7592 C.ar    1  UNL1       -0.0116
     28 C           4.7689    3.8143    5.0920 C.ar    1  UNL1       -0.0090
     29 C           4.6565    5.1882    5.5936 C.ar    1  UNL1        0.0065
     30 C           5.3756    5.5587    6.6789 C.ar    1  UNL1        0.0159
     31 N           5.3918    6.8417    7.1606 N.ar    1  UNL1       -0.3171
     32 C           5.9431    7.0972    8.4755 C.3     1  UNL1        0.0147
     33 C           4.7123    7.9400    6.5447 C.ar    1  UNL1        0.2603
     34 C           4.0542    7.5651    5.2493 C.ar    1  UNL1        0.0653
     35 C           4.0274    6.2667    4.8007 C.ar    1  UNL1       -0.0007
     36 C           3.5444    6.0393    3.5028 C.ar    1  UNL1       -0.0351
     37 C           2.8822    7.0223    2.8347 C.ar    1  UNL1        0.0282
     38 N           2.9142    8.2935    3.2367 N.ar    1  UNL1       -0.2625
     39 C           3.5512    8.5473    4.4174 C.ar    1  UNL1        0.0405
     40 O           4.6422    9.0130    6.9600 O.2     1  UNL1       -0.2670
     41 C           4.6559    2.6749    5.7915 C.ar    1  UNL1       -0.0116
     42 C           5.0031    1.4803    5.1408 C.ar    1  UNL1        0.1285
     43 O           4.8174    0.4208    6.0102 O.3     1  UNL1       -0.4947
     44 C           4.6231   -0.8951    5.5639 C.3     1  UNL1        0.0788
     45 C           3.2290    0.6228    1.5073 C.3     1  UNL1        0.0151
     46 C           2.7652    1.9582    2.1944 C.3     1  UNL1        0.0275
     47 O           1.1859    3.0184    5.1942 O.2     1  UNL1       -0.2731
     48 O          -1.8520   -1.5086   -0.9409 O.2     1  UNL1       -0.2733
     49 C           2.6199   -2.2253   -1.1456 C.2     1  UNL1        0.2371
     50 N           3.2456   -3.4600   -1.2761 N.am    1  UNL1       -0.2858
     51 C           4.4923   -3.8522   -0.5530 C.3     1  UNL1        0.1047
     52 C           5.6879   -2.8667   -0.6237 C.2     1  UNL1        0.2339
     53 N           6.2164   -2.3807    0.5826 N.am    1  UNL1       -0.3097
     54 C           7.5054   -1.6796    0.5253 C.3     1  UNL1        0.0369
     55 C           7.8209   -0.4307    1.3025 C.ar    1  UNL1       -0.0303
     56 C           8.2024    0.7602    0.6242 C.ar    1  UNL1       -0.0565
     57 C           8.3000    2.0230    1.2902 C.ar    1  UNL1       -0.0532
     58 C           8.0860    2.1566    2.6540 C.ar    1  UNL1       -0.0095
     59 C           7.8533    3.6645    3.1367 C.ar    1  UNL1        0.0417
     60 C           7.7837    4.1655    4.4320 C.ar    1  UNL1        0.0531
     61 C           8.0183    3.2921    5.6079 C.3     1  UNL1       -0.0212
     62 N           7.3821    5.5130    4.6063 N.ar    1  UNL1       -0.2520
     63 C           6.9404    6.0865    3.5001 C.ar    1  UNL1        0.0655
     64 S           7.2904    5.1480    2.0335 S.2     1  UNL1       -0.0752
     65 C           7.8009    0.8684    3.3495 C.ar    1  UNL1       -0.0532
     66 C           7.6927   -0.4061    2.6797 C.ar    1  UNL1       -0.0565
     67 O           6.1653   -2.5480   -1.7133 O.2     1  UNL1       -0.2738
     68 C           4.8781   -5.2013   -1.2385 C.3     1  UNL1        0.0018
     69 C           3.5469   -5.7491   -1.7443 C.3     1  UNL1        0.0731
     70 O           2.8258   -6.3588   -0.6731 O.3     1  UNL1       -0.3902
     71 C           2.8188   -4.4999   -2.2112 C.3     1  UNL1        0.0416
     72 O           3.2826   -1.2053   -0.9518 O.2     1  UNL1       -0.2735
     73 H          -0.0289    0.5492   -3.2662 H       1  UNL1        0.0236
     74 H           1.1458    0.5223   -1.9029 H       1  UNL1        0.0236
     75 H          -0.5767    0.1224   -1.7648 H       1  UNL1        0.0236
     76 H          -1.0029   -1.6929   -4.0535 H       1  UNL1        0.0236
     77 H          -0.2951   -3.2471   -3.4756 H       1  UNL1        0.0236
     78 H          -1.4261   -2.4228   -2.5492 H       1  UNL1        0.0236
     79 H           2.5729   -0.8806   -3.3187 H       1  UNL1        0.0236
     80 H           1.9908   -2.4487   -3.9367 H       1  UNL1        0.0236
     81 H           1.3290   -0.9220   -4.5513 H       1  UNL1        0.0236
     82 H           0.6795   -3.2093   -1.2474 H       1  UNL1        0.0600
     83 H           0.9797   -1.3066    0.6344 H       1  UNL1        0.1495
     84 H          -2.7278   -0.6379    1.1802 H       1  UNL1        0.0656
     85 H          -1.6709    0.0662    1.9146 H       1  UNL1        0.0656
     86 H          -0.2943    1.5001   -0.7740 H       1  UNL1        0.0583
     87 H          -0.6294    2.8607    0.1453 H       1  UNL1        0.0583
     88 H           1.4658    1.8626    0.3594 H       1  UNL1        0.0583
     89 H           0.8334    1.9936    1.7720 H       1  UNL1        0.0583
     90 H          -0.4215   -0.9140    1.9530 H       1  UNL1        0.0583
     91 H           0.3046   -1.3706    3.0052 H       1  UNL1        0.0583
     92 H          -1.4881   -0.1282    4.0019 H       1  UNL1        0.0583
     93 H           0.0018    0.4800    4.6272 H       1  UNL1        0.0583
     94 H          -0.3865    2.7401    2.2237 H       1  UNL1        0.0657
     95 H          -0.4047    3.9053    3.0489 H       1  UNL1        0.0657
     96 H           3.2931    0.9968    4.4559 H       1  UNL1        0.0477
     97 H           2.0634    0.5810    5.2840 H       1  UNL1        0.0477
     98 H           1.9341   -1.1763    3.0485 H       1  UNL1        0.0442
     99 H           3.0393   -1.5864    3.9472 H       1  UNL1        0.0442
    100 H           5.5731   -0.5254    3.5004 H       1  UNL1        0.0478
    101 H           5.5506    0.0067    2.0091 H       1  UNL1        0.0478
    102 H           6.3152    1.2878    1.2216 H       1  UNL1        0.0660
    103 H           5.1790    0.8696    0.3209 H       1  UNL1        0.0660
    104 H           6.1251    2.1104   -0.3233 H       1  UNL1        0.0660
    105 H           5.4868    4.5612    3.3811 H       1  UNL1        0.0660
    106 H           6.0349    4.8645    7.1933 H       1  UNL1        0.0816
    107 H           6.6448    7.9332    8.4372 H       1  UNL1        0.0457
    108 H           5.1027    7.3544    9.1261 H       1  UNL1        0.0457
    109 H           6.4445    6.2085    8.8753 H       1  UNL1        0.0457
    110 H           3.7321    5.1650    2.8967 H       1  UNL1        0.0639
    111 H           2.3151    6.7345    1.9567 H       1  UNL1        0.0830
    112 H           3.6508    9.5945    4.6700 H       1  UNL1        0.0837
    113 H           4.2086    2.7356    6.7738 H       1  UNL1        0.0660
    114 H           4.4200   -0.9105    4.5525 H       1  UNL1        0.0660
    115 H           5.5201   -1.4915    5.4546 H       1  UNL1        0.0660
    116 H           3.6744   -1.3387    5.8869 H       1  UNL1        0.0660
    117 H           2.5829   -0.0307    0.9547 H       1  UNL1        0.0442
    118 H           3.6446    0.8661    0.5490 H       1  UNL1        0.0442
    119 H           2.5112    2.7903    1.5193 H       1  UNL1        0.0477
    120 H           3.5156    2.5865    2.5070 H       1  UNL1        0.0477
    121 H           4.2221   -4.0498    0.4902 H       1  UNL1        0.0597
    122 H           5.8244   -2.6920    1.4665 H       1  UNL1        0.1491
    123 H           8.2506   -2.3571    0.9345 H       1  UNL1        0.0512
    124 H           7.7041   -1.4341   -0.5148 H       1  UNL1        0.0512
    125 H           7.9772    0.8001   -0.4513 H       1  UNL1        0.0621
    126 H           8.0445    2.9195    0.7136 H       1  UNL1        0.0624
    127 H           8.9994    3.5718    5.9538 H       1  UNL1        0.0293
    128 H           7.3007    3.2941    6.4315 H       1  UNL1        0.0293
    129 H           8.0581    2.2456    5.3239 H       1  UNL1        0.0293
    130 H           6.2400    6.9476    3.5533 H       1  UNL1        0.0907
    131 H           7.3233    0.8112    4.3450 H       1  UNL1        0.0624
    132 H           7.1735   -1.2927    3.1082 H       1  UNL1        0.0621
    133 H           5.3750   -5.8989   -0.5548 H       1  UNL1        0.0313
    134 H           5.5492   -5.0397   -2.0934 H       1  UNL1        0.0313
    135 H           3.6556   -6.4941   -2.5391 H       1  UNL1        0.0610
    136 H           2.6123   -5.6705   -0.0198 H       1  UNL1        0.2098
    137 H           3.1398   -4.2121   -3.2195 H       1  UNL1        0.0490
    138 H           1.7374   -4.6192   -2.1993 H       1  UNL1        0.0490
@<TRIPOS>BOND
     1     1     2    1
     2     2     3    1
     3     2     4    1
     4     6     7   am
     5     7     8    1
     6     8     9    1
     7     9    10    1
     8    10    11    1
     9    11    12    1
    10    12    13    1
    11    13    14    1
    12    14    15    1
    13    15    16    1
    14    16    17    1
    15    17    18   am
    16    18    19    1
    17    19    20    1
    18    20    21    1
    19    21    22    1
    20    22    23    1
    21    23    24   ar
    22    24    25    1
    23    25    26    1
    24    24    27   ar
    25    27    28   ar
    26    28    29    1
    27    29    30   ar
    28    30    31   ar
    29    31    32    1
    30    31    33   ar
    31    33    34   ar
    32    34    35   ar
    33    29    35   ar
    34    35    36   ar
    35    36    37   ar
    36    37    38   ar
    37    38    39   ar
    38    34    39   ar
    39    33    40    2
    40    28    41   ar
    41    41    42   ar
    42    23    42   ar
    43    42    43    1
    44    43    44    1
    45    21    45    1
    46    45    46    1
    47    18    46    1
    48    17    47    2
    49     7    48    2
    50     5    49    1
    51    49    50   am
    52    50    51    1
    53    51    52    1
    54    52    53   am
    55    53    54    1
    56    54    55    1
    57    55    56   ar
    58    56    57   ar
    59    57    58   ar
    60    58    59    1
    61    59    60   ar
    62    60    61    1
    63    60    62   ar
    64    62    63   ar
    65    63    64   ar
    66    59    64   ar
    67    58    65   ar
    68    65    66   ar
    69    55    66   ar
    70    52    67    2
    71    51    68    1
    72    68    69    1
    73    69    70    1
    74    69    71    1
    75    50    71    1
    76    49    72    2
    77     1    73    1
    78     1    74    1
    79     1    75    1
    80     3    76    1
    81     3    77    1
    82     3    78    1
    83     4    79    1
    84     4    80    1
    85     4    81    1
    86     5    82    1
    87     6    83    1
    88     8    84    1
    89     8    85    1
    90    10    86    1
    91    10    87    1
    92    11    88    1
    93    11    89    1
    94    13    90    1
    95    13    91    1
    96    14    92    1
    97    14    93    1
    98    16    94    1
    99    16    95    1
   100    19    96    1
   101    19    97    1
   102    20    98    1
   103    20    99    1
   104    22   100    1
   105    22   101    1
   106    26   102    1
   107    26   103    1
   108    26   104    1
   109    27   105    1
   110    30   106    1
   111    32   107    1
   112    32   108    1
   113    32   109    1
   114    36   110    1
   115    37   111    1
   116    39   112    1
   117    41   113    1
   118    44   114    1
   119    44   115    1
   120    44   116    1
   121    45   117    1
   122    45   118    1
   123    46   119    1
   124    46   120    1
   125    51   121    1
   126    53   122    1
   127    54   123    1
   128    54   124    1
   129    56   125    1
   130    57   126    1
   131    61   127    1
   132    61   128    1
   133    61   129    1
   134    63   130    1
   135    65   131    1
   136    66   132    1
   137    68   133    1
   138    68   134    1
   139    69   135    1
   140    70   136    1
   141    71   137    1
   142    71   138    1
   143     5     6    1
   144     5     2    1
