@<TRIPOS>MOLECULE
*****
 132 139 0 0 0
SMALL
GASTEIGER

@<TRIPOS>ATOM
      1 C          -5.7499   -8.4286   -2.4576 C.3     1  UNL1       -0.0212
      2 C          -5.1645   -9.0462   -3.6494 C.ar    1  UNL1        0.0531
      3 C          -3.8045   -9.0304   -3.9754 C.ar    1  UNL1        0.0418
      4 S          -3.7437   -9.4548   -5.6831 S.2     1  UNL1       -0.0752
      5 C          -5.3785  -10.0318   -5.6054 C.ar    1  UNL1        0.0655
      6 N          -6.0344   -9.6678   -4.5312 N.ar    1  UNL1       -0.2520
      7 C          -2.6026   -8.7975   -3.0384 C.ar    1  UNL1       -0.0061
      8 C          -1.4559   -7.9955   -3.3404 C.ar    1  UNL1       -0.0529
      9 C          -0.3075   -7.9349   -2.3952 C.ar    1  UNL1       -0.0530
     10 C          -0.2817   -8.6466   -1.0955 C.ar    1  UNL1        0.0113
     11 C           0.8872   -8.2908   -0.1432 C.3     1  UNL1        0.0403
     12 N           2.2383   -8.5599   -0.5680 N.am    1  UNL1       -0.3095
     13 C           3.3732   -7.9699   -1.0162 C.2     1  UNL1        0.2339
     14 C           4.4155   -9.0676   -1.5449 C.3     1  UNL1        0.1047
     15 C           5.7987   -8.5259   -1.9028 C.3     1  UNL1        0.0018
     16 C           6.2683   -9.4937   -2.9854 C.3     1  UNL1        0.0731
     17 O           6.8118  -10.6856   -2.4010 O.3     1  UNL1       -0.3902
     18 C           4.9920   -9.8009   -3.7628 C.3     1  UNL1        0.0416
     19 N           3.9432   -9.8036   -2.7564 N.am    1  UNL1       -0.2858
     20 C           2.8072  -10.5621   -3.0378 C.2     1  UNL1        0.2371
     21 C           1.7758  -10.8651   -1.9162 C.3     1  UNL1        0.1045
     22 C           2.2790  -11.4757   -0.4769 C.3     1  UNL1       -0.0108
     23 C           3.2919  -12.4724   -0.9806 C.3     1  UNL1       -0.0579
     24 C           2.9478  -10.7206    0.7865 C.3     1  UNL1       -0.0579
     25 C           1.0868  -12.1322    0.2384 C.3     1  UNL1       -0.0579
     26 N           0.6426  -11.7054   -2.3152 N.am    1  UNL1       -0.3009
     27 C          -0.4883  -11.1972   -2.7132 C.2     1  UNL1        0.2508
     28 C          -1.7727  -11.8745   -2.6411 C.3     1  UNL1        0.1868
     29 F          -2.4375  -11.9368   -1.4240 F       1  UNL1       -0.2320
     30 C          -2.4114  -11.7171   -4.0002 C.3     1  UNL1       -0.0068
     31 C          -2.3235  -13.0203   -3.3487 C.3     1  UNL1       -0.0068
     32 O          -0.4070  -10.0895   -3.3079 O.2     1  UNL1       -0.2723
     33 O           2.5711  -10.9440   -4.1892 O.2     1  UNL1       -0.2735
     34 O           3.5436   -6.7642   -1.0046 O.2     1  UNL1       -0.2738
     35 C          -1.3845   -9.5574   -0.7881 C.ar    1  UNL1        0.1259
     36 O          -1.4701  -10.1625    0.5266 O.3     1  UNL1       -0.4893
     37 C          -2.6972  -10.8544    1.0417 C.3     1  UNL1        0.1129
     38 C          -3.9806   -9.9719    1.3069 C.3     1  UNL1        0.0823
     39 O          -4.5373   -9.1424    0.2603 O.3     1  UNL1       -0.3672
     40 C          -3.6437   -8.1353   -0.0544 C.3     1  UNL1        0.1238
     41 C          -2.9841   -6.9954    0.5315 C.2     1  UNL1        0.2391
     42 N          -1.6408   -7.2461    0.7731 N.am    1  UNL1       -0.3081
     43 C          -1.0840   -6.2760    1.5676 C.3     1  UNL1        0.0486
     44 C           0.3780   -6.1953    1.8479 C.3     1  UNL1        0.0189
     45 N           0.1663   -4.7220    2.0164 N.3     1  UNL1       -0.2943
     46 C          -0.3113   -4.2006    3.3142 C.3     1  UNL1        0.0311
     47 C          -1.6593   -4.5702    3.8656 C.ar    1  UNL1        0.0498
     48 C          -2.7784   -3.7195    3.7360 C.ar    1  UNL1        0.1285
     49 O          -2.8430   -2.4629    3.1646 O.3     1  UNL1       -0.4947
     50 C          -1.6797   -1.8392    2.6232 C.3     1  UNL1        0.0788
     51 C          -4.0279   -4.1963    4.1728 C.ar    1  UNL1       -0.0116
     52 C          -4.2299   -5.5500    4.5021 C.ar    1  UNL1       -0.0090
     53 C          -5.6138   -6.0927    4.5475 C.ar    1  UNL1        0.0065
     54 C          -6.5423   -6.0630    3.3973 C.ar    1  UNL1       -0.0007
     55 C          -7.7845   -6.6838    3.4661 C.ar    1  UNL1        0.0653
     56 C          -8.5789   -6.7081    2.3356 C.ar    1  UNL1        0.0405
     57 N          -8.1226   -6.3576    1.1109 N.ar    1  UNL1       -0.2625
     58 C          -6.8830   -5.8338    1.0605 C.ar    1  UNL1        0.0282
     59 C          -6.1516   -5.5139    2.1812 C.ar    1  UNL1       -0.0351
     60 C          -6.0379   -6.7418    5.6475 C.ar    1  UNL1        0.0159
     61 N          -7.2789   -7.3537    5.7426 N.ar    1  UNL1       -0.3171
     62 C          -7.6566   -8.0414    6.9605 C.3     1  UNL1        0.0147
     63 C          -8.2056   -7.3654    4.6972 C.ar    1  UNL1        0.2603
     64 O          -9.2965   -7.9265    4.7479 O.2     1  UNL1       -0.2670
     65 C          -3.1213   -6.3968    4.5960 C.ar    1  UNL1       -0.0116
     66 C          -1.8224   -5.8796    4.4202 C.ar    1  UNL1        0.1285
     67 O          -0.8196   -6.8340    4.5271 O.3     1  UNL1       -0.4947
     68 C           0.5624   -6.4707    4.6107 C.3     1  UNL1        0.0788
     69 C          -0.9579   -4.8885    1.0260 C.3     1  UNL1        0.0189
     70 O          -3.5695   -5.9365    0.6597 O.2     1  UNL1       -0.2733
     71 C          -2.5325   -9.5795   -1.7749 C.ar    1  UNL1       -0.0113
     72 H          -6.1616   -7.4536   -2.7016 H       1  UNL1        0.0293
     73 H          -6.4128   -9.0711   -1.8833 H       1  UNL1        0.0293
     74 H          -4.9711   -8.1687   -1.7980 H       1  UNL1        0.0293
     75 H          -5.8667  -10.6064   -6.3912 H       1  UNL1        0.0907
     76 H          -1.2958   -7.7269   -4.4015 H       1  UNL1        0.0624
     77 H           0.7059   -7.7343   -2.8353 H       1  UNL1        0.0622
     78 H           0.8815   -7.2309   -0.1198 H       1  UNL1        0.0513
     79 H           0.7644   -8.7764    0.8465 H       1  UNL1        0.0513
     80 H           2.3542   -9.5160   -0.5899 H       1  UNL1        0.1491
     81 H           4.7030   -9.8178   -0.8142 H       1  UNL1        0.0597
     82 H           6.4696   -8.5457   -1.0315 H       1  UNL1        0.0313
     83 H           5.7188   -7.5012   -2.2639 H       1  UNL1        0.0313
     84 H           7.0510   -9.0600   -3.6083 H       1  UNL1        0.0610
     85 H           6.0986  -11.2071   -1.9960 H       1  UNL1        0.2098
     86 H           4.7471   -9.0039   -4.4679 H       1  UNL1        0.0490
     87 H           5.0297  -10.7696   -4.2720 H       1  UNL1        0.0490
     88 H           1.3654   -9.8682   -1.9342 H       1  UNL1        0.0600
     89 H           4.1180  -11.9391   -1.4551 H       1  UNL1        0.0236
     90 H           3.7038  -13.0565   -0.1716 H       1  UNL1        0.0236
     91 H           2.8323  -13.1074   -1.7436 H       1  UNL1        0.0236
     92 H           2.2522  -10.0769    1.3435 H       1  UNL1        0.0236
     93 H           3.3778  -11.3825    1.5380 H       1  UNL1        0.0236
     94 H           3.7740  -10.0709    0.5625 H       1  UNL1        0.0236
     95 H           0.4291  -11.3534    0.6245 H       1  UNL1        0.0236
     96 H           0.4969  -12.7986   -0.3884 H       1  UNL1        0.0236
     97 H           1.4259  -12.7069    1.0982 H       1  UNL1        0.0236
     98 H           0.6857  -12.6788   -2.5400 H       1  UNL1        0.1496
     99 H          -3.4188  -11.3726   -4.0864 H       1  UNL1        0.0302
    100 H          -1.7159  -11.2911   -4.7320 H       1  UNL1        0.0302
    101 H          -1.5398  -13.7299   -3.2363 H       1  UNL1        0.0302
    102 H          -3.2999  -13.2517   -2.9065 H       1  UNL1        0.0302
    103 H          -2.9017  -11.7577    0.4694 H       1  UNL1        0.0720
    104 H          -2.4665  -11.2891    2.0449 H       1  UNL1        0.0720
    105 H          -4.8023  -10.6181    1.6099 H       1  UNL1        0.0594
    106 H          -3.7249   -9.2783    2.1121 H       1  UNL1        0.0594
    107 H          -2.8313   -8.7257    0.1668 H       1  UNL1        0.0656
    108 H          -3.5130   -7.8206   -1.0946 H       1  UNL1        0.0656
    109 H          -1.3007   -8.1959    0.9480 H       1  UNL1        0.1491
    110 H          -1.7290   -6.4184    2.4097 H       1  UNL1        0.0523
    111 H           0.5881   -7.0479    2.5027 H       1  UNL1        0.0445
    112 H           1.2551   -6.2866    1.2176 H       1  UNL1        0.0445
    113 H           0.3757   -4.2207    4.1578 H       1  UNL1        0.0478
    114 H          -0.1484   -3.1582    3.1906 H       1  UNL1        0.0478
    115 H          -0.9782   -1.6096    3.4353 H       1  UNL1        0.0660
    116 H          -1.2442   -2.4251    1.8052 H       1  UNL1        0.0660
    117 H          -1.8846   -0.8742    2.1627 H       1  UNL1        0.0660
    118 H          -4.8907   -3.5300    4.1576 H       1  UNL1        0.0660
    119 H          -9.6083   -7.0493    2.3751 H       1  UNL1        0.0837
    120 H          -6.4322   -5.7209    0.0791 H       1  UNL1        0.0830
    121 H          -5.2471   -4.9314    2.0613 H       1  UNL1        0.0639
    122 H          -5.3997   -6.8231    6.5232 H       1  UNL1        0.0816
    123 H          -8.5760   -7.5892    7.3451 H       1  UNL1        0.0457
    124 H          -7.8523   -9.0944    6.7315 H       1  UNL1        0.0457
    125 H          -6.8702   -7.9722    7.7156 H       1  UNL1        0.0457
    126 H          -3.2704   -7.4717    4.7212 H       1  UNL1        0.0660
    127 H           0.9704   -5.8922    3.7995 H       1  UNL1        0.0660
    128 H           0.7936   -5.8092    5.4327 H       1  UNL1        0.0660
    129 H           1.1903   -7.3561    4.4809 H       1  UNL1        0.0660
    130 H          -0.6585   -4.9025   -0.0290 H       1  UNL1        0.0445
    131 H          -1.8736   -4.3082    1.1277 H       1  UNL1        0.0445
    132 H          -3.4434  -10.1844   -1.5269 H       1  UNL1        0.0660
@<TRIPOS>BOND
     1     1     2    1
     2     2     3   ar
     3     3     4   ar
     4     4     5   ar
     5     5     6   ar
     6     2     6   ar
     7     3     7    1
     8     7     8   ar
     9     8     9   ar
    10     9    10   ar
    11    10    11    1
    12    11    12    1
    13    12    13   am
    14    14    15    1
    15    15    16    1
    16    16    17    1
    17    16    18    1
    18    18    19    1
    19    14    19    1
    20    19    20   am
    21    22    23    1
    22    22    24    1
    23    22    25    1
    24    21    26    1
    25    26    27   am
    26    27    28    1
    27    28    29    1
    28    28    30    1
    29    30    31    1
    30    28    31    1
    31    27    32    2
    32    20    33    2
    33    13    34    2
    34    10    35   ar
    35    35    36    1
    36    36    37    1
    37    37    38    1
    38    38    39    1
    39    39    40    1
    40    40    41    1
    41    41    42   am
    42    42    43    1
    43    43    44    1
    44    44    45    1
    45    45    46    1
    46    46    47    1
    47    47    48   ar
    48    48    49    1
    49    49    50    1
    50    48    51   ar
    51    51    52   ar
    52    52    53    1
    53    53    54   ar
    54    54    55   ar
    55    55    56   ar
    56    56    57   ar
    57    57    58   ar
    58    58    59   ar
    59    54    59   ar
    60    53    60   ar
    61    60    61   ar
    62    61    62    1
    63    61    63   ar
    64    55    63   ar
    65    63    64    2
    66    52    65   ar
    67    65    66   ar
    68    47    66   ar
    69    66    67    1
    70    67    68    1
    71    45    69    1
    72    43    69    1
    73    41    70    2
    74    35    71   ar
    75     7    71   ar
    76     1    72    1
    77     1    73    1
    78     1    74    1
    79     5    75    1
    80     8    76    1
    81     9    77    1
    82    11    78    1
    83    11    79    1
    84    12    80    1
    85    15    82    1
    86    15    83    1
    87    16    84    1
    88    17    85    1
    89    18    86    1
    90    18    87    1
    91    21    88    1
    92    23    89    1
    93    23    90    1
    94    23    91    1
    95    24    92    1
    96    24    93    1
    97    24    94    1
    98    25    95    1
    99    25    96    1
   100    25    97    1
   101    26    98    1
   102    30    99    1
   103    30   100    1
   104    31   101    1
   105    31   102    1
   106    37   103    1
   107    37   104    1
   108    38   105    1
   109    38   106    1
   110    40   107    1
   111    40   108    1
   112    42   109    1
   113    43   110    1
   114    44   111    1
   115    44   112    1
   116    46   113    1
   117    46   114    1
   118    50   115    1
   119    50   116    1
   120    50   117    1
   121    51   118    1
   122    56   119    1
   123    58   120    1
   124    59   121    1
   125    60   122    1
   126    62   123    1
   127    62   124    1
   128    62   125    1
   129    65   126    1
   130    68   127    1
   131    68   128    1
   132    68   129    1
   133    69   130    1
   134    69   131    1
   135    71   132    1
   136    14    81    1
   137    14    13    1
   138    21    22    1
   139    21    20    1
