@<TRIPOS>MOLECULE
*****
 32 31 0 0 0
SMALL
GASTEIGER

@<TRIPOS>ATOM
      1 C           1.1765    0.0042    0.0454 C.2     1  UNL1       -0.1026
      2 C           0.4952    1.1409   -0.0327 C.2     1  UNL1       -0.0911
      3 C          -0.9569    1.0948    0.2202 C.3     1  UNL1       -0.0349
      4 C          -1.4701    2.1306    1.2001 C.3     1  UNL1       -0.0475
      5 C          -1.2420    3.6415    0.8883 C.3     1  UNL1       -0.0292
      6 C          -2.0450    4.3127   -0.2298 C.3     1  UNL1        0.0478
      7 O          -3.4192    4.2416   -0.5545 O.3     1  UNL1       -0.3775
      8 C          -3.8056    2.8579   -0.6813 C.3     1  UNL1        0.0710
      9 C          -3.1605    1.9634   -1.8383 C.3     1  UNL1        0.0717
     10 O          -1.7626    1.9426   -2.2880 O.3     1  UNL1       -0.3664
     11 C          -0.8606    3.0476   -2.4649 C.3     1  UNL1        0.1444
     12 C          -1.5042    3.7026   -3.6007 C.2     1  UNL1        0.3308
     13 O          -2.3548    4.7231   -3.3649 O.3     1  UNL1       -0.4790
     14 O          -1.4199    3.1784   -4.7368 O.2     1  UNL1       -0.2484
     15 H           0.6276   -0.9138    0.2303 H       1  UNL1        0.0532
     16 H           2.2480    0.0055   -0.0559 H       1  UNL1        0.0532
     17 H           0.9792    2.0752   -0.3087 H       1  UNL1        0.0566
     18 H          -1.3530    1.2930   -0.7089 H       1  UNL1        0.0307
     19 H          -1.4079    0.0973    0.3191 H       1  UNL1        0.0307
     20 H          -2.5106    1.9146    1.3891 H       1  UNL1        0.0269
     21 H          -1.0228    1.8897    2.1540 H       1  UNL1        0.0269
     22 H          -1.4458    4.2399    1.7622 H       1  UNL1        0.0287
     23 H          -0.1669    3.7518    0.6479 H       1  UNL1        0.0287
     24 H          -1.5542    5.2057   -0.6652 H       1  UNL1        0.0560
     25 H          -1.8564    3.5204   -0.8569 H       1  UNL1        0.0560
     26 H          -3.6641    2.4552    0.3027 H       1  UNL1        0.0583
     27 H          -4.8921    2.7888   -0.7253 H       1  UNL1        0.0583
     28 H          -3.3751    0.9122   -1.5293 H       1  UNL1        0.0583
     29 H          -3.7288    2.1440   -2.7371 H       1  UNL1        0.0583
     30 H          -0.6047    3.8261   -1.7423 H       1  UNL1        0.0676
     31 H           0.1902    2.7167   -2.4368 H       1  UNL1        0.0676
     32 H          -2.6042    5.0356   -2.4630 H       1  UNL1        0.2951
@<TRIPOS>BOND
     1     1     2    2
     2     2     3    1
     3     3     4    1
     4     4     5    1
     5     5     6    1
     6     6     7    1
     7     7     8    1
     8     8     9    1
     9     9    10    1
    10    10    11    1
    11    11    12    1
    12    12    13    1
    13    12    14    2
    14     1    15    1
    15     1    16    1
    16     2    17    1
    17     3    18    1
    18     3    19    1
    19     4    20    1
    20     4    21    1
    21     5    22    1
    22     5    23    1
    23     6    24    1
    24     6    25    1
    25     8    26    1
    26     8    27    1
    27     9    28    1
    28     9    29    1
    29    11    30    1
    30    11    31    1
    31    13    32    1
