@<TRIPOS>MOLECULE
*****
 55 58 0 0 0
SMALL
GASTEIGER

@<TRIPOS>ATOM
      1 C           0.9511    0.0860   -0.0417 C.3     1  UNL1        0.0788
      2 O           0.3998   -0.3458    1.1901 O.3     1  UNL1       -0.4948
      3 C           0.9017   -1.4761    1.7607 C.ar    1  UNL1        0.1253
      4 C           0.0479   -2.1478    2.6351 C.ar    1  UNL1        0.0117
      5 C          -1.5174   -2.1282    2.2853 C.3     1  UNL1        0.0277
      6 N          -2.2944   -3.3053    1.6394 N.3     1  UNL1       -0.2956
      7 C          -1.9195   -3.7294    0.2583 C.3     1  UNL1        0.0118
      8 C          -0.4558   -4.1500    0.1181 C.3     1  UNL1        0.0087
      9 N          -0.1338   -5.2692    1.0272 N.3     1  UNL1       -0.3136
     10 C          -0.8658   -5.1611    2.3005 C.3     1  UNL1        0.0087
     11 C          -2.2432   -4.5247    2.4750 C.3     1  UNL1        0.0118
     12 C           0.6675   -3.0605    3.5698 C.ar    1  UNL1       -0.0115
     13 C           1.8444   -3.7744    3.1934 C.ar    1  UNL1        0.1284
     14 O           1.9612   -5.0497    3.7361 O.3     1  UNL1       -0.4945
     15 C           3.0857   -5.9234    3.5514 C.3     1  UNL1        0.0788
     16 C           2.6080   -3.1913    2.1867 C.ar    1  UNL1        0.0292
     17 C           3.9555   -3.6405    1.8731 C.ar    1  UNL1        0.0099
     18 C           4.8858   -2.9316    2.5221 C.ar    1  UNL1        0.0160
     19 N           6.2123   -3.2821    2.5240 N.ar    1  UNL1       -0.3171
     20 C           6.6632   -4.4590    1.9415 C.ar    1  UNL1        0.2603
     21 C           5.6700   -5.2707    1.2153 C.ar    1  UNL1        0.0653
     22 C           5.9786   -6.5095    0.6835 C.ar    1  UNL1        0.0405
     23 N           5.1104   -7.2511   -0.0534 N.ar    1  UNL1       -0.2625
     24 C           3.8617   -6.7621   -0.2059 C.ar    1  UNL1        0.0282
     25 C           3.4290   -5.6004    0.4016 C.ar    1  UNL1       -0.0351
     26 C           4.3586   -4.8164    1.0957 C.ar    1  UNL1       -0.0006
     27 O           7.8506   -4.8370    1.9864 O.2     1  UNL1       -0.2670
     28 C           7.1608   -2.3888    3.1524 C.3     1  UNL1        0.0147
     29 C           2.1772   -1.9984    1.5499 C.ar    1  UNL1       -0.0084
     30 H           0.5757    1.0973   -0.2239 H       1  UNL1        0.0660
     31 H           0.5980   -0.5618   -0.8489 H       1  UNL1        0.0660
     32 H           2.0413    0.1480   -0.0321 H       1  UNL1        0.0660
     33 H          -2.0411   -1.8908    3.2181 H       1  UNL1        0.0477
     34 H          -1.7278   -1.2726    1.6269 H       1  UNL1        0.0477
     35 H          -2.5020   -4.6307   -0.0089 H       1  UNL1        0.0439
     36 H          -2.1994   -2.9898   -0.4972 H       1  UNL1        0.0439
     37 H           0.1549   -3.2609    0.2714 H       1  UNL1        0.0437
     38 H          -0.1914   -4.4501   -0.8995 H       1  UNL1        0.0437
     39 H          -0.3470   -6.1602    0.6104 H       1  UNL1        0.1220
     40 H          -0.3827   -4.2981    2.5713 H       1  UNL1        0.0437
     41 H          -0.5394   -5.8099    3.1172 H       1  UNL1        0.0437
     42 H          -2.4215   -4.2186    3.5161 H       1  UNL1        0.0439
     43 H          -3.0049   -5.2719    2.2312 H       1  UNL1        0.0439
     44 H           0.0530   -3.5413    4.3370 H       1  UNL1        0.0658
     45 H           3.1798   -6.3459    2.5542 H       1  UNL1        0.0660
     46 H           4.0033   -5.4372    3.8840 H       1  UNL1        0.0660
     47 H           2.9719   -6.8471    4.1338 H       1  UNL1        0.0660
     48 H           4.6110   -2.0571    3.1142 H       1  UNL1        0.0816
     49 H           6.9498   -6.9650    0.8559 H       1  UNL1        0.0837
     50 H           3.1785   -7.3588   -0.8031 H       1  UNL1        0.0830
     51 H           2.3617   -5.4123    0.4772 H       1  UNL1        0.0639
     52 H           7.6880   -2.9223    3.9462 H       1  UNL1        0.0457
     53 H           7.8712   -2.0705    2.3852 H       1  UNL1        0.0457
     54 H           6.6664   -1.5044    3.5689 H       1  UNL1        0.0457
     55 H           2.8607   -1.5343    0.8463 H       1  UNL1        0.0661
@<TRIPOS>BOND
     1     1     2    1
     2     2     3    1
     3     3     4   ar
     4     4     5    1
     5     5     6    1
     6     6     7    1
     7     7     8    1
     8     8     9    1
     9     9    10    1
    10    10    11    1
    11     6    11    1
    12     4    12   ar
    13    12    13   ar
    14    13    14    1
    15    14    15    1
    16    13    16   ar
    17    16    17    1
    18    17    18   ar
    19    18    19   ar
    20    19    20   ar
    21    20    21   ar
    22    21    22   ar
    23    22    23   ar
    24    23    24   ar
    25    24    25   ar
    26    25    26   ar
    27    21    26   ar
    28    17    26   ar
    29    20    27    2
    30    19    28    1
    31    16    29   ar
    32     3    29   ar
    33     1    30    1
    34     1    31    1
    35     1    32    1
    36     5    33    1
    37     5    34    1
    38     7    35    1
    39     7    36    1
    40     8    37    1
    41     8    38    1
    42     9    39    1
    43    10    40    1
    44    10    41    1
    45    11    42    1
    46    11    43    1
    47    12    44    1
    48    15    45    1
    49    15    46    1
    50    15    47    1
    51    18    48    1
    52    22    49    1
    53    24    50    1
    54    25    51    1
    55    28    52    1
    56    28    53    1
    57    28    54    1
    58    29    55    1
