@<TRIPOS>MOLECULE
*****
 134 141 0 0 0
SMALL
GASTEIGER

@<TRIPOS>ATOM
      1 C          -5.6458   -8.2540   -2.4648 C.3     1  UNL1       -0.0212
      2 C          -5.0939   -8.9014   -3.6596 C.ar    1  UNL1        0.0531
      3 C          -3.7221   -8.8941   -3.9360 C.ar    1  UNL1        0.0418
      4 S          -3.6685   -9.3903   -5.6456 S.2     1  UNL1       -0.0752
      5 C          -5.3074  -10.0044   -5.5602 C.ar    1  UNL1        0.0655
      6 N          -5.9546   -9.6349   -4.4781 N.ar    1  UNL1       -0.2520
      7 C          -2.5468   -8.4506   -2.9589 C.ar    1  UNL1       -0.0061
      8 C          -1.3813   -7.8263   -3.3365 C.ar    1  UNL1       -0.0529
      9 C          -0.2780   -7.7120   -2.3335 C.ar    1  UNL1       -0.0530
     10 C          -0.3281   -8.2128   -0.9069 C.ar    1  UNL1        0.0113
     11 C           0.8811   -8.1004    0.0084 C.3     1  UNL1        0.0403
     12 N           2.1619   -8.4987   -0.5586 N.am    1  UNL1       -0.3095
     13 C           3.3312   -7.9697   -1.0024 C.2     1  UNL1        0.2339
     14 C           4.3915   -9.0726   -1.5303 C.3     1  UNL1        0.1047
     15 C           5.7830   -8.5316   -1.8900 C.3     1  UNL1        0.0018
     16 C           6.2575   -9.4965   -2.9765 C.3     1  UNL1        0.0731
     17 O           6.8059  -10.6921   -2.4046 O.3     1  UNL1       -0.3902
     18 C           4.9793   -9.8023   -3.7510 C.3     1  UNL1        0.0416
     19 N           3.9281   -9.8006   -2.7427 N.am    1  UNL1       -0.2858
     20 C           2.7802  -10.5353   -3.0152 C.2     1  UNL1        0.2371
     21 C           1.7627  -10.8518   -1.8878 C.3     1  UNL1        0.1045
     22 C           2.2656  -11.4559   -0.4676 C.3     1  UNL1       -0.0108
     23 C           3.2808  -12.4484   -0.9778 C.3     1  UNL1       -0.0579
     24 C           2.9337  -10.6841    0.7779 C.3     1  UNL1       -0.0579
     25 C           1.0695  -12.1027    0.2467 C.3     1  UNL1       -0.0579
     26 N           0.6686  -11.7089   -2.3619 N.am    1  UNL1       -0.3009
     27 C          -0.4701  -11.1273   -2.6281 C.2     1  UNL1        0.2508
     28 C          -1.7527  -11.7003   -2.6559 C.3     1  UNL1        0.1868
     29 F          -2.3746  -11.5294   -1.4752 F       1  UNL1       -0.2320
     30 C          -2.3861  -11.6118   -4.0005 C.3     1  UNL1       -0.0068
     31 C          -2.3247  -12.8874   -3.2580 C.3     1  UNL1       -0.0068
     32 O          -0.4357   -9.9140   -2.8346 O.2     1  UNL1       -0.2723
     33 O           2.5276  -10.9060   -4.1679 O.2     1  UNL1       -0.2735
     34 O           3.5283   -6.7664   -0.9744 O.2     1  UNL1       -0.2738
     35 C          -1.4643   -8.9298   -0.5149 C.ar    1  UNL1        0.1257
     36 O          -1.5050   -9.8090    0.6052 O.3     1  UNL1       -0.4916
     37 C          -2.6119  -10.7301    1.0607 C.3     1  UNL1        0.0896
     38 C          -3.9423  -10.0088    1.3061 C.3     1  UNL1       -0.0182
     39 C          -4.5919   -9.5240    0.0416 C.3     1  UNL1       -0.0417
     40 C          -4.7047  -10.6863   -1.0034 C.3     1  UNL1        0.0241
     41 C          -5.8353  -11.5129   -0.7764 C.2     1  UNL1        0.2133
     42 N          -6.6189  -11.5970   -1.9048 N.am    1  UNL1       -0.3100
     43 C          -7.8535  -12.2033   -1.6330 C.3     1  UNL1        0.0485
     44 C          -8.7529  -11.2327   -0.8883 C.3     1  UNL1        0.0189
     45 N          -9.9255  -12.0742   -1.3725 N.3     1  UNL1       -0.2943
     46 C         -10.3629  -13.2941   -0.6109 C.3     1  UNL1        0.0311
     47 C          -9.4291  -14.4410   -0.3923 C.ar    1  UNL1        0.0498
     48 C          -9.5088  -15.6451   -1.1213 C.ar    1  UNL1        0.1285
     49 O         -10.4154  -15.9957   -2.1020 O.3     1  UNL1       -0.4947
     50 C         -11.4522  -15.0923   -2.4818 C.3     1  UNL1        0.0788
     51 C          -8.5309  -16.6237   -0.8806 C.ar    1  UNL1       -0.0116
     52 C          -7.3656  -16.3335   -0.1456 C.ar    1  UNL1       -0.0090
     53 C          -6.2074  -17.2578   -0.2407 C.ar    1  UNL1        0.0065
     54 C          -5.5626  -17.6404   -1.5133 C.ar    1  UNL1       -0.0007
     55 C          -4.4602  -18.4883   -1.5245 C.ar    1  UNL1        0.0653
     56 C          -3.8511  -18.7659   -2.7316 C.ar    1  UNL1        0.0405
     57 N          -4.1212  -18.0736   -3.8627 N.ar    1  UNL1       -0.2625
     58 C          -5.1368  -17.1915   -3.8003 C.ar    1  UNL1        0.0282
     59 C          -5.9785  -17.0821   -2.7185 C.ar    1  UNL1       -0.0351
     60 C          -5.6560  -17.7456    0.8851 C.ar    1  UNL1        0.0159
     61 N          -4.5607  -18.5952    0.8938 N.ar    1  UNL1       -0.3171
     62 C          -4.0405  -19.0875    2.1520 C.3     1  UNL1        0.0147
     63 C          -3.9164  -19.0200   -0.2683 C.ar    1  UNL1        0.2603
     64 O          -2.9368  -19.7597   -0.2886 O.2     1  UNL1       -0.2670
     65 C          -7.2850  -15.1211    0.5457 C.ar    1  UNL1       -0.0116
     66 C          -8.3844  -14.2413    0.5525 C.ar    1  UNL1        0.1285
     67 O          -8.2388  -13.1283    1.3608 O.3     1  UNL1       -0.4947
     68 C          -9.2807  -12.1791    1.6253 C.3     1  UNL1        0.0788
     69 C          -9.0196  -12.3997   -2.5400 C.3     1  UNL1        0.0189
     70 O          -5.9254  -12.1088    0.2894 O.2     1  UNL1       -0.2758
     71 C          -2.4282   -8.9424   -1.5745 C.ar    1  UNL1       -0.0114
     72 H          -6.1042   -7.3113   -2.7168 H       1  UNL1        0.0293
     73 H          -6.3453   -8.8968   -1.9289 H       1  UNL1        0.0293
     74 H          -4.8178   -7.9995   -1.8129 H       1  UNL1        0.0293
     75 H          -5.8007  -10.5932   -6.3430 H       1  UNL1        0.0907
     76 H          -1.2001   -7.7955   -4.4167 H       1  UNL1        0.0624
     77 H           0.7346   -7.7514   -2.7957 H       1  UNL1        0.0622
     78 H           0.9858   -7.0767    0.3051 H       1  UNL1        0.0513
     79 H           0.7207   -8.7601    0.8877 H       1  UNL1        0.0513
     80 H           2.2077   -9.4654   -0.5332 H       1  UNL1        0.1491
     81 H           4.7058   -9.8164   -0.8017 H       1  UNL1        0.0597
     82 H           6.4621   -8.5534   -1.0240 H       1  UNL1        0.0313
     83 H           5.7046   -7.5065   -2.2491 H       1  UNL1        0.0313
     84 H           7.0408   -9.0589   -3.5975 H       1  UNL1        0.0610
     85 H           6.0972  -11.2093   -1.9862 H       1  UNL1        0.2098
     86 H           4.7413   -9.0062   -4.4595 H       1  UNL1        0.0490
     87 H           5.0166  -10.7710   -4.2610 H       1  UNL1        0.0490
     88 H           1.3151   -9.8674   -1.8596 H       1  UNL1        0.0600
     89 H           4.1039  -11.9154   -1.4591 H       1  UNL1        0.0236
     90 H           3.7009  -13.0315   -0.1733 H       1  UNL1        0.0236
     91 H           2.8212  -13.0829   -1.7416 H       1  UNL1        0.0236
     92 H           2.2426  -10.0314    1.3288 H       1  UNL1        0.0236
     93 H           3.3814  -11.3242    1.5377 H       1  UNL1        0.0236
     94 H           3.7439  -10.0283    0.5332 H       1  UNL1        0.0236
     95 H           0.3878  -11.3233    0.6024 H       1  UNL1        0.0236
     96 H           0.5015  -12.7871   -0.3803 H       1  UNL1        0.0236
     97 H           1.4120  -12.6645    1.1152 H       1  UNL1        0.0236
     98 H           0.7034  -12.6826   -2.5821 H       1  UNL1        0.1496
     99 H          -3.4029  -11.2942   -4.0950 H       1  UNL1        0.0302
    100 H          -1.6847  -11.2162   -4.7394 H       1  UNL1        0.0302
    101 H          -1.5599  -13.6184   -3.1549 H       1  UNL1        0.0302
    102 H          -3.2896  -13.0932   -2.7810 H       1  UNL1        0.0302
    103 H          -2.7024  -11.6600    0.4765 H       1  UNL1        0.0696
    104 H          -2.3498  -11.1826    2.0406 H       1  UNL1        0.0696
    105 H          -4.6909  -10.6207    1.8077 H       1  UNL1        0.0298
    106 H          -3.7026   -9.1441    1.9282 H       1  UNL1        0.0298
    107 H          -5.5198   -8.9600    0.1286 H       1  UNL1        0.0271
    108 H          -3.9545   -8.6537   -0.1434 H       1  UNL1        0.0271
    109 H          -4.6318  -10.4704   -2.0666 H       1  UNL1        0.0358
    110 H          -4.0256  -11.5165   -0.9032 H       1  UNL1        0.0358
    111 H          -6.4923  -11.0006   -2.7153 H       1  UNL1        0.1491
    112 H          -7.5611  -13.1206   -1.1445 H       1  UNL1        0.0523
    113 H          -8.2395  -11.1223    0.0735 H       1  UNL1        0.0445
    114 H          -8.9159  -10.1573   -1.0674 H       1  UNL1        0.0445
    115 H         -10.8744  -13.1880    0.3531 H       1  UNL1        0.0478
    116 H         -11.2994  -13.5421   -1.0585 H       1  UNL1        0.0478
    117 H         -12.1646  -14.9829   -1.6543 H       1  UNL1        0.0660
    118 H         -11.0452  -14.1443   -2.8552 H       1  UNL1        0.0660
    119 H         -12.0597  -15.4604   -3.3067 H       1  UNL1        0.0660
    120 H          -8.6263  -17.6096   -1.3367 H       1  UNL1        0.0660
    121 H          -3.0929  -19.5380   -2.8153 H       1  UNL1        0.0837
    122 H          -5.2401  -16.5039   -4.6333 H       1  UNL1        0.0830
    123 H          -6.8890  -16.5056   -2.8145 H       1  UNL1        0.0639
    124 H          -6.0633  -17.4842    1.8581 H       1  UNL1        0.0816
    125 H          -4.0839  -20.1810    2.1422 H       1  UNL1        0.0457
    126 H          -2.9955  -18.7767    2.2523 H       1  UNL1        0.0457
    127 H          -4.6196  -18.7050    2.9956 H       1  UNL1        0.0457
    128 H          -6.3507  -14.8290    1.0322 H       1  UNL1        0.0660
    129 H          -9.7786  -11.7750    0.7689 H       1  UNL1        0.0660
    130 H         -10.1601  -12.5767    2.1112 H       1  UNL1        0.0660
    131 H          -8.8844  -11.2242    1.9880 H       1  UNL1        0.0660
    132 H          -9.0667  -11.6520   -3.3293 H       1  UNL1        0.0445
    133 H          -9.0624  -13.4049   -2.9555 H       1  UNL1        0.0445
    134 H          -3.0484   -9.7468   -1.3757 H       1  UNL1        0.0660
@<TRIPOS>BOND
     1     1     2    1
     2     2     3   ar
     3     3     4   ar
     4     4     5   ar
     5     5     6   ar
     6     2     6   ar
     7     3     7    1
     8     7     8   ar
     9     8     9   ar
    10     9    10   ar
    11    10    11    1
    12    11    12    1
    13    12    13   am
    14    14    15    1
    15    15    16    1
    16    16    17    1
    17    16    18    1
    18    18    19    1
    19    14    19    1
    20    19    20   am
    21    22    23    1
    22    22    24    1
    23    22    25    1
    24    21    26    1
    25    26    27   am
    26    27    28    1
    27    28    29    1
    28    28    30    1
    29    30    31    1
    30    28    31    1
    31    27    32    2
    32    20    33    2
    33    13    34    2
    34    10    35   ar
    35    35    36    1
    36    36    37    1
    37    37    38    1
    38    38    39    1
    39    39    40    1
    40    40    41    1
    41    41    42   am
    42    42    43    1
    43    43    44    1
    44    44    45    1
    45    45    46    1
    46    46    47    1
    47    47    48   ar
    48    48    49    1
    49    49    50    1
    50    48    51   ar
    51    51    52   ar
    52    52    53    1
    53    53    54   ar
    54    54    55   ar
    55    55    56   ar
    56    56    57   ar
    57    57    58   ar
    58    58    59   ar
    59    54    59   ar
    60    53    60   ar
    61    60    61   ar
    62    61    62    1
    63    61    63   ar
    64    55    63   ar
    65    63    64    2
    66    52    65   ar
    67    65    66   ar
    68    47    66   ar
    69    66    67    1
    70    67    68    1
    71    45    69    1
    72    43    69    1
    73    41    70    2
    74    35    71   ar
    75     7    71   ar
    76     1    72    1
    77     1    73    1
    78     1    74    1
    79     5    75    1
    80     8    76    1
    81     9    77    1
    82    11    78    1
    83    11    79    1
    84    12    80    1
    85    15    82    1
    86    15    83    1
    87    16    84    1
    88    17    85    1
    89    18    86    1
    90    18    87    1
    91    21    88    1
    92    23    89    1
    93    23    90    1
    94    23    91    1
    95    24    92    1
    96    24    93    1
    97    24    94    1
    98    25    95    1
    99    25    96    1
   100    25    97    1
   101    26    98    1
   102    30    99    1
   103    30   100    1
   104    31   101    1
   105    31   102    1
   106    37   103    1
   107    37   104    1
   108    38   105    1
   109    38   106    1
   110    39   107    1
   111    39   108    1
   112    40   109    1
   113    40   110    1
   114    42   111    1
   115    43   112    1
   116    44   113    1
   117    44   114    1
   118    46   115    1
   119    46   116    1
   120    50   117    1
   121    50   118    1
   122    50   119    1
   123    51   120    1
   124    56   121    1
   125    58   122    1
   126    59   123    1
   127    60   124    1
   128    62   125    1
   129    62   126    1
   130    62   127    1
   131    65   128    1
   132    68   129    1
   133    68   130    1
   134    68   131    1
   135    69   132    1
   136    69   133    1
   137    71   134    1
   138    14    81    1
   139    14    13    1
   140    21    22    1
   141    21    20    1
