@<TRIPOS>MOLECULE
*****
 87 89 0 0 0
SMALL
GASTEIGER

@<TRIPOS>ATOM
      1 O           1.5882   -6.3705    0.1429 O.2     1  UNL1       -0.2738
      2 C           0.5480   -5.7544    0.2867 C.2     1  UNL1        0.2339
      3 C          -0.5656   -5.6331   -0.8051 C.3     1  UNL1        0.1047
      4 C          -0.8827   -7.0764   -1.2096 C.3     1  UNL1        0.0018
      5 C          -1.3629   -6.9540   -2.6412 C.3     1  UNL1        0.0731
      6 O          -2.7264   -6.5294   -2.6316 O.3     1  UNL1       -0.3902
      7 C          -0.4567   -5.8736   -3.2246 C.3     1  UNL1        0.0416
      8 N          -0.2249   -4.9625   -2.1000 N.am    1  UNL1       -0.2858
      9 C           0.2040   -3.6607   -2.3803 C.2     1  UNL1        0.2371
     10 C           0.6337   -2.7233   -1.2396 C.3     1  UNL1        0.1044
     11 C           2.1927   -3.0361   -0.9058 C.3     1  UNL1       -0.0108
     12 C           2.4526   -3.1667    0.5195 C.3     1  UNL1       -0.0579
     13 C           2.7621   -4.3013   -1.5625 C.3     1  UNL1       -0.0579
     14 C           3.1309   -1.8547   -1.0482 C.3     1  UNL1       -0.0579
     15 N          -0.4589   -2.7382   -0.2048 N.am    1  UNL1       -0.3037
     16 C          -1.1793   -1.6449    0.2062 C.2     1  UNL1        0.2105
     17 C          -2.2222   -1.8536    1.2845 C.3     1  UNL1        0.0122
     18 O          -0.9306   -0.4844   -0.2146 O.2     1  UNL1       -0.2761
     19 O           0.4707   -3.3201   -3.5395 O.2     1  UNL1       -0.2735
     20 N           0.3663   -4.9734    1.4091 N.am    1  UNL1       -0.3095
     21 C           1.5387   -4.7305    2.3681 C.3     1  UNL1        0.0403
     22 C           1.5837   -3.3954    3.1812 C.ar    1  UNL1        0.0113
     23 C           1.0624   -2.2026    2.5806 C.ar    1  UNL1       -0.0530
     24 C           1.0135   -0.9193    3.0609 C.ar    1  UNL1       -0.0529
     25 C           1.1785   -0.8069    4.4026 C.ar    1  UNL1       -0.0061
     26 C           1.0282    0.5280    4.9591 C.ar    1  UNL1        0.0418
     27 C           1.9927    1.2159    5.6570 C.ar    1  UNL1        0.0531
     28 C           3.3040    0.6430    6.0394 C.3     1  UNL1       -0.0212
     29 N           1.6849    2.5305    5.9554 N.ar    1  UNL1       -0.2520
     30 C           0.4958    2.8229    5.4730 C.ar    1  UNL1        0.0655
     31 S          -0.3168    1.5555    4.6487 S.2     1  UNL1       -0.0752
     32 C           1.5633   -1.9733    5.1501 C.ar    1  UNL1       -0.0113
     33 C           1.8161   -3.2729    4.5501 C.ar    1  UNL1        0.1259
     34 O           1.6988   -4.3659    5.4209 O.3     1  UNL1       -0.4893
     35 C           1.4710   -5.7387    4.9545 C.3     1  UNL1        0.1128
     36 C           0.1466   -6.2161    4.0933 C.3     1  UNL1        0.0818
     37 O          -0.7050   -5.2016    3.4349 O.3     1  UNL1       -0.3742
     38 C          -0.9291   -3.8735    3.9029 C.3     1  UNL1        0.0712
     39 C          -1.8732   -3.3381    4.9486 C.3     1  UNL1        0.0714
     40 O          -1.9455   -4.1080    6.1557 O.3     1  UNL1       -0.3735
     41 C          -1.7963   -5.4800    5.8174 C.3     1  UNL1        0.0657
     42 C          -2.8782   -5.9178    4.7767 C.2     1  UNL1       -0.0658
     43 C          -2.9119   -6.3215    3.4761 C.2     1  UNL1       -0.1005
     44 H          -1.4801   -5.1577   -0.4330 H       1  UNL1        0.0597
     45 H          -1.6245   -7.5056   -0.5297 H       1  UNL1        0.0313
     46 H           0.0200   -7.6975   -1.1718 H       1  UNL1        0.0313
     47 H          -1.3038   -7.9040   -3.1781 H       1  UNL1        0.0610
     48 H          -2.7490   -5.5921   -2.3675 H       1  UNL1        0.2098
     49 H           0.5136   -6.2839   -3.5310 H       1  UNL1        0.0490
     50 H          -0.9117   -5.3463   -4.0699 H       1  UNL1        0.0490
     51 H           0.6274   -1.6963   -1.6089 H       1  UNL1        0.0600
     52 H           1.5504   -3.6387    0.7139 H       1  UNL1        0.0236
     53 H           3.3315   -3.7033    0.8802 H       1  UNL1        0.0236
     54 H           2.4684   -2.2147    1.0287 H       1  UNL1        0.0236
     55 H           2.9914   -4.1012   -2.6018 H       1  UNL1        0.0236
     56 H           3.6463   -4.6809   -1.0353 H       1  UNL1        0.0236
     57 H           2.0825   -5.1471   -1.5806 H       1  UNL1        0.0236
     58 H           3.2548   -1.5897   -2.0788 H       1  UNL1        0.0236
     59 H           2.7543   -0.9983   -0.4632 H       1  UNL1        0.0236
     60 H           4.1066   -2.1210   -0.5942 H       1  UNL1        0.0236
     61 H          -0.5728   -3.5673    0.3633 H       1  UNL1        0.1495
     62 H          -1.9576   -1.2624    2.1726 H       1  UNL1        0.0322
     63 H          -3.2044   -1.5274    0.9373 H       1  UNL1        0.0322
     64 H          -2.3163   -2.9013    1.5826 H       1  UNL1        0.0322
     65 H          -0.5600   -5.0247    1.8370 H       1  UNL1        0.1491
     66 H           1.6252   -5.6313    2.8963 H       1  UNL1        0.0513
     67 H           2.4995   -4.9346    1.9105 H       1  UNL1        0.0513
     68 H           0.5687   -2.2676    1.6377 H       1  UNL1        0.0622
     69 H           0.7819   -0.0912    2.3859 H       1  UNL1        0.0624
     70 H           4.1184    1.2162    5.5986 H       1  UNL1        0.0293
     71 H           3.3765    0.6143    7.1259 H       1  UNL1        0.0293
     72 H           3.4322   -0.3843    5.6838 H       1  UNL1        0.0293
     73 H           0.0558    3.8058    5.5879 H       1  UNL1        0.0907
     74 H           1.5441   -1.8784    6.2361 H       1  UNL1        0.0660
     75 H           2.4075   -6.0519    4.4753 H       1  UNL1        0.0720
     76 H           1.4400   -6.3707    5.8478 H       1  UNL1        0.0720
     77 H           0.3725   -6.9974    3.3351 H       1  UNL1        0.0594
     78 H          -0.4857   -6.8946    4.6744 H       1  UNL1        0.0594
     79 H          -0.0911   -3.7096    4.4779 H       1  UNL1        0.0583
     80 H          -0.9847   -3.2144    3.0424 H       1  UNL1        0.0583
     81 H          -1.5108   -2.3210    5.1892 H       1  UNL1        0.0583
     82 H          -2.8530   -3.2829    4.5025 H       1  UNL1        0.0583
     83 H          -0.7588   -5.3834    5.5930 H       1  UNL1        0.0604
     84 H          -1.6278   -6.2087    6.6159 H       1  UNL1        0.0604
     85 H          -3.8517   -5.7568    5.2124 H       1  UNL1        0.0589
     86 H          -3.8373   -6.4039    2.9151 H       1  UNL1        0.0532
     87 H          -2.0829   -6.5289    2.7965 H       1  UNL1        0.0532
@<TRIPOS>BOND
     1     1     2    2
     2     3     4    1
     3     4     5    1
     4     5     6    1
     5     5     7    1
     6     7     8    1
     7     3     8    1
     8     8     9   am
     9    11    12    1
    10    11    13    1
    11    11    14    1
    12    10    15    1
    13    15    16   am
    14    16    17    1
    15    16    18    2
    16     9    19    2
    17     2    20   am
    18    20    21    1
    19    21    22    1
    20    22    23   ar
    21    23    24   ar
    22    24    25   ar
    23    25    26    1
    24    26    27   ar
    25    27    28    1
    26    27    29   ar
    27    29    30   ar
    28    30    31   ar
    29    26    31   ar
    30    25    32   ar
    31    32    33   ar
    32    22    33   ar
    33    33    34    1
    34    34    35    1
    35    35    36    1
    36    36    37    1
    37    37    38    1
    38    38    39    1
    39    39    40    1
    40    40    41    1
    41    41    42    1
    42    42    43    2
    43     4    45    1
    44     4    46    1
    45     5    47    1
    46     6    48    1
    47     7    49    1
    48     7    50    1
    49    10    51    1
    50    12    52    1
    51    12    53    1
    52    12    54    1
    53    13    55    1
    54    13    56    1
    55    13    57    1
    56    14    58    1
    57    14    59    1
    58    14    60    1
    59    15    61    1
    60    17    62    1
    61    17    63    1
    62    17    64    1
    63    20    65    1
    64    21    66    1
    65    21    67    1
    66    23    68    1
    67    24    69    1
    68    28    70    1
    69    28    71    1
    70    28    72    1
    71    30    73    1
    72    32    74    1
    73    35    75    1
    74    35    76    1
    75    36    77    1
    76    36    78    1
    77    38    79    1
    78    38    80    1
    79    39    81    1
    80    39    82    1
    81    41    83    1
    82    41    84    1
    83    42    85    1
    84    43    86    1
    85    43    87    1
    86     3    44    1
    87     3     2    1
    88    10    11    1
    89    10     9    1
