@<TRIPOS>MOLECULE
*****
 111 117 0 0 0
SMALL
GASTEIGER

@<TRIPOS>ATOM
      1 O           0.7329    0.5016    0.2955 O.2     1  UNL1       -0.2733
      2 C           1.9222    0.7272    0.0146 C.2     1  UNL1        0.2389
      3 N           2.8031    0.8911    1.2048 N.am    1  UNL1       -0.3119
      4 C           4.3004    0.7697    1.6761 C.3     1  UNL1        0.0271
      5 C           4.9675    2.0686    1.6924 C.3     1  UNL1        0.0247
      6 N           4.5078    2.5538    2.9332 N.pl3   1  UNL1       -0.3417
      7 C           5.4501    2.7385    3.8977 C.ar    1  UNL1        0.0402
      8 C           5.3031    2.1918    5.1745 C.ar    1  UNL1       -0.0401
      9 C           6.2457    2.4587    6.1804 C.ar    1  UNL1       -0.0593
     10 C           7.3693    3.2410    5.9122 C.ar    1  UNL1       -0.0488
     11 C           7.5173    3.7140    4.6223 C.ar    1  UNL1        0.0512
     12 C           8.5646    4.5196    4.0242 C.2     1  UNL1        0.2546
     13 N           8.2072    4.7971    2.7361 N.am    1  UNL1       -0.2220
     14 C           8.9231    5.6408    1.7803 C.3     1  UNL1        0.1109
     15 C           8.9833    7.1138    2.1472 C.3     1  UNL1       -0.0170
     16 C           9.8331    7.3389    3.3776 C.3     1  UNL1        0.0265
     17 C          11.1589    6.6020    3.3388 C.2     1  UNL1        0.2193
     18 N          11.2989    5.6076    2.3989 N.am    1  UNL1       -0.2548
     19 C          10.3303    5.1000    1.5615 C.2     1  UNL1        0.2402
     20 O          10.5859    4.2035    0.7612 O.2     1  UNL1       -0.2733
     21 O          12.0678    6.8649    4.1226 O.2     1  UNL1       -0.2754
     22 O           9.5785    4.8095    4.6244 O.2     1  UNL1       -0.2695
     23 C           6.5983    3.4631    3.6365 C.ar    1  UNL1        0.0702
     24 C           7.0463    4.1640    2.4157 C.2     1  UNL1        0.2563
     25 O           6.4972    4.1841    1.3293 O.2     1  UNL1       -0.2694
     26 C           2.4194    0.2338   -1.4651 C.3     1  UNL1        0.1237
     27 O           1.9207   -1.1750   -1.5772 O.3     1  UNL1       -0.3683
     28 C           2.9769   -2.4388   -0.8729 C.3     1  UNL1        0.0716
     29 C           4.9761   -1.8100   -0.3846 C.3     1  UNL1        0.0711
     30 O           5.8521   -0.7395   -0.3018 O.3     1  UNL1       -0.3762
     31 C           5.4419    0.1644   -1.1921 C.3     1  UNL1        0.0605
     32 C           5.8572   -0.4218   -2.4699 C.3     1  UNL1        0.0224
     33 N           5.3139   -1.7369   -2.7700 N.3     1  UNL1       -0.2977
     34 C           3.9091   -1.3953   -2.1031 C.3     1  UNL1        0.0118
     35 C           3.5114   -1.2079    0.0120 C.3     1  UNL1        0.0120
     36 C           6.0317   -3.0508   -2.0951 C.3     1  UNL1        0.0118
     37 C           6.0085   -3.3509   -0.1441 C.3     1  UNL1        0.0120
     38 N           4.1694   -3.0678    0.6283 N.3     1  UNL1       -0.2955
     39 C           3.1247   -4.4575    0.1158 C.3     1  UNL1        0.0311
     40 C           2.7740   -4.7628   -1.5848 C.ar    1  UNL1        0.0498
     41 C           1.5266   -4.1669   -2.2451 C.ar    1  UNL1        0.1285
     42 O           0.4573   -3.3207   -1.6853 O.3     1  UNL1       -0.4947
     43 C           0.3484   -2.7552   -0.3021 C.3     1  UNL1        0.0788
     44 C           1.5066   -4.1889   -3.6354 C.ar    1  UNL1       -0.0116
     45 C           2.6700   -4.5092   -4.3785 C.ar    1  UNL1       -0.0090
     46 C           2.5780   -4.5349   -5.8298 C.ar    1  UNL1        0.0065
     47 C           2.1783   -3.4101   -6.6558 C.ar    1  UNL1       -0.0007
     48 C           2.1213   -3.5635   -8.0291 C.ar    1  UNL1        0.0653
     49 C           1.7803   -2.4704   -8.7784 C.ar    1  UNL1        0.0405
     50 N           1.7818   -1.2181   -8.2685 N.ar    1  UNL1       -0.2625
     51 C           1.9692   -1.1003   -6.9389 C.ar    1  UNL1        0.0282
     52 C           1.9320   -2.1691   -6.0875 C.ar    1  UNL1       -0.0351
     53 C           2.8793   -5.6958   -6.4291 C.ar    1  UNL1        0.0159
     54 N           2.8203   -5.8657   -7.7905 N.ar    1  UNL1       -0.3171
     55 C           3.1521   -7.1460   -8.3612 C.3     1  UNL1        0.0147
     56 C           2.4405   -4.8493   -8.6587 C.ar    1  UNL1        0.2603
     57 O           2.3843   -4.9673   -9.8780 O.2     1  UNL1       -0.2670
     58 C           3.8670   -4.9093   -3.7845 C.ar    1  UNL1       -0.0116
     59 C           3.8708   -5.1997   -2.4155 C.ar    1  UNL1        0.1285
     60 O           5.0894   -5.7444   -2.0001 O.3     1  UNL1       -0.4947
     61 C           5.4808   -5.4869   -0.6875 C.3     1  UNL1        0.0788
     62 H           2.2873    0.7703    2.0630 H       1  UNL1        0.1488
     63 H           4.6308   -0.1248    2.2603 H       1  UNL1        0.0477
     64 H           4.9798    0.5323    0.9396 H       1  UNL1        0.0477
     65 H           6.0605    1.8954    1.5604 H       1  UNL1        0.0476
     66 H           4.6250    2.6392    0.8164 H       1  UNL1        0.0476
     67 H           3.5273    2.3943    3.1115 H       1  UNL1        0.1461
     68 H           4.4491    1.5572    5.4062 H       1  UNL1        0.0636
     69 H           6.0906    2.0533    7.1770 H       1  UNL1        0.0618
     70 H           8.0964    3.4608    6.6868 H       1  UNL1        0.0625
     71 H           8.3999    5.5968    0.8155 H       1  UNL1        0.0602
     72 H           9.4209    7.6778    1.3125 H       1  UNL1        0.0293
     73 H           7.9735    7.5058    2.3120 H       1  UNL1        0.0293
     74 H          10.0457    8.4044    3.4734 H       1  UNL1        0.0359
     75 H           9.2670    7.0397    4.2623 H       1  UNL1        0.0359
     76 H          12.1994    5.1495    2.3770 H       1  UNL1        0.1575
     77 H           2.4482    1.1865   -2.0192 H       1  UNL1        0.0656
     78 H           2.1897    0.2129   -2.5628 H       1  UNL1        0.0656
     79 H           2.4188   -2.5274    0.3010 H       1  UNL1        0.0583
     80 H           2.2616   -3.1701   -0.8754 H       1  UNL1        0.0583
     81 H           5.3990   -1.9874    0.9213 H       1  UNL1        0.0583
     82 H           4.8960   -2.5053   -1.0837 H       1  UNL1        0.0583
     83 H           5.7243    0.8940   -0.4902 H       1  UNL1        0.0572
     84 H           4.8661    1.0657   -1.3223 H       1  UNL1        0.0572
     85 H           5.3483    0.2192   -3.1839 H       1  UNL1        0.0449
     86 H           6.8989   -0.5416   -2.3532 H       1  UNL1        0.0449
     87 H           3.5914   -0.6894   -2.8769 H       1  UNL1        0.0439
     88 H           3.3404   -2.2583   -2.6720 H       1  UNL1        0.0439
     89 H           4.0440   -0.3866    0.2630 H       1  UNL1        0.0439
     90 H           2.5494   -1.0541    0.5050 H       1  UNL1        0.0439
     91 H           5.1103   -3.5364   -2.3817 H       1  UNL1        0.0439
     92 H           6.7315   -3.6114   -2.6927 H       1  UNL1        0.0439
     93 H           6.8214   -2.5293   -0.0371 H       1  UNL1        0.0439
     94 H           6.4685   -3.9333    0.6399 H       1  UNL1        0.0439
     95 H           3.3656   -5.3872    0.5842 H       1  UNL1        0.0478
     96 H           2.2419   -4.2084    0.6978 H       1  UNL1        0.0478
     97 H           0.6082   -3.4988    0.4379 H       1  UNL1        0.0660
     98 H           0.9393   -1.8644   -0.0930 H       1  UNL1        0.0660
     99 H          -0.5159   -2.1680   -0.0004 H       1  UNL1        0.0660
    100 H           0.5663   -4.0146   -4.1479 H       1  UNL1        0.0660
    101 H           1.5455   -2.5795   -9.8295 H       1  UNL1        0.0837
    102 H           2.2272   -0.1175   -6.5616 H       1  UNL1        0.0830
    103 H           1.7938   -2.0255   -5.0226 H       1  UNL1        0.0639
    104 H           3.1858   -6.5596   -5.8441 H       1  UNL1        0.0816
    105 H           2.2813   -7.5132   -8.9101 H       1  UNL1        0.0457
    106 H           3.9890   -7.0143   -9.0522 H       1  UNL1        0.0457
    107 H           3.4252   -7.8579   -7.5795 H       1  UNL1        0.0457
    108 H           4.7914   -5.0007   -4.3752 H       1  UNL1        0.0660
    109 H           4.9116   -4.6016   -0.6977 H       1  UNL1        0.0660
    110 H           5.0803   -5.6683    0.3225 H       1  UNL1        0.0660
    111 H           6.5590   -5.2491   -0.5847 H       1  UNL1        0.0660
@<TRIPOS>BOND
     1     1     2    2
     2     2     3   am
     3     3     4    1
     4     4     5    1
     5     5     6    1
     6     6     7    1
     7     7     8   ar
     8     8     9   ar
     9     9    10   ar
    10    10    11   ar
    11    11    12    1
    12    12    13   am
    13    13    14    1
    14    14    15    1
    15    15    16    1
    16    16    17    1
    17    17    18   am
    18    18    19   am
    19    14    19    1
    20    19    20    2
    21    17    21    2
    22    12    22    2
    23    11    23   ar
    24     7    23   ar
    25    23    24    1
    26    13    24   am
    27    24    25    2
    28     2    26    1
    29    26    27    1
    30    27    28    1
    31    28    29    1
    32    29    30    1
    33    30    31    1
    34    31    32    1
    35    32    33    1
    36    33    34    1
    37    34    35    1
    38    33    36    1
    39    36    37    1
    40    37    38    1
    41    35    38    1
    42    38    39    1
    43    39    40    1
    44    40    41   ar
    45    41    42    1
    46    42    43    1
    47    41    44   ar
    48    44    45   ar
    49    45    46    1
    50    46    47   ar
    51    47    48   ar
    52    48    49   ar
    53    49    50   ar
    54    50    51   ar
    55    51    52   ar
    56    47    52   ar
    57    46    53   ar
    58    53    54   ar
    59    54    55    1
    60    54    56   ar
    61    48    56   ar
    62    56    57    2
    63    45    58   ar
    64    58    59   ar
    65    40    59   ar
    66    59    60    1
    67    60    61    1
    68     3    62    1
    69     4    63    1
    70     4    64    1
    71     5    65    1
    72     5    66    1
    73     6    67    1
    74     8    68    1
    75     9    69    1
    76    10    70    1
    77    14    71    1
    78    15    72    1
    79    15    73    1
    80    16    74    1
    81    16    75    1
    82    18    76    1
    83    26    77    1
    84    26    78    1
    85    28    79    1
    86    28    80    1
    87    29    81    1
    88    29    82    1
    89    31    83    1
    90    31    84    1
    91    32    85    1
    92    32    86    1
    93    34    87    1
    94    34    88    1
    95    35    89    1
    96    35    90    1
    97    36    91    1
    98    36    92    1
    99    37    93    1
   100    37    94    1
   101    39    95    1
   102    39    96    1
   103    43    97    1
   104    43    98    1
   105    43    99    1
   106    44   100    1
   107    49   101    1
   108    51   102    1
   109    52   103    1
   110    53   104    1
   111    55   105    1
   112    55   106    1
   113    55   107    1
   114    58   108    1
   115    61   109    1
   116    61   110    1
   117    61   111    1
