@<TRIPOS>MOLECULE
*****
 90 93 0 0 0
SMALL
GASTEIGER

@<TRIPOS>ATOM
      1 C          -2.5747   -7.5180    5.7434 C.3     1  UNL1       -0.0212
      2 C          -1.4273   -8.3169    6.2559 C.ar    1  UNL1        0.0531
      3 C          -0.1641   -8.6312    5.7332 C.ar    1  UNL1        0.0418
      4 S           0.6745   -9.6645    6.8244 S.2     1  UNL1       -0.0752
      5 C          -0.6275   -9.5466    7.9072 C.ar    1  UNL1        0.0655
      6 N          -1.6545   -8.8345    7.5212 N.ar    1  UNL1       -0.2520
      7 C           0.5736   -8.3003    4.5151 C.ar    1  UNL1       -0.0061
      8 C           0.5953   -9.1900    3.4693 C.ar    1  UNL1       -0.0529
      9 C           1.0453   -8.7433    2.2322 C.ar    1  UNL1       -0.0530
     10 C           1.5193   -7.4353    1.9316 C.ar    1  UNL1        0.0113
     11 C           1.7749   -7.0316    0.4694 C.3     1  UNL1        0.0403
     12 N           3.1194   -7.4758    0.0413 N.am    1  UNL1       -0.3095
     13 C           3.3076   -8.0098   -1.2125 C.2     1  UNL1        0.2339
     14 C           4.4544   -9.0379   -1.5300 C.3     1  UNL1        0.1047
     15 C           5.8230   -8.5010   -1.9108 C.3     1  UNL1        0.0018
     16 C           6.2705   -9.4936   -2.9891 C.3     1  UNL1        0.0731
     17 O           6.8202  -10.6772   -2.3892 O.3     1  UNL1       -0.3902
     18 C           4.9744   -9.8212   -3.7380 C.3     1  UNL1        0.0416
     19 N           3.9629   -9.8218   -2.6915 N.am    1  UNL1       -0.2858
     20 C           2.6862  -10.3796   -2.8977 C.2     1  UNL1        0.2371
     21 C           1.6430  -10.5088   -1.7000 C.3     1  UNL1        0.1045
     22 C           2.1979  -11.3711   -0.5181 C.3     1  UNL1       -0.0108
     23 C           3.2068  -12.3866   -1.0219 C.3     1  UNL1       -0.0579
     24 C           2.8839  -10.5362    0.5492 C.3     1  UNL1       -0.0579
     25 C           1.0434  -12.0547    0.2264 C.3     1  UNL1       -0.0579
     26 N           0.3271  -11.0022   -2.1851 N.am    1  UNL1       -0.3009
     27 C          -0.8002  -10.1963   -2.1175 C.2     1  UNL1        0.2508
     28 C          -2.1397  -10.7714   -2.4710 C.3     1  UNL1        0.1868
     29 F          -3.1780  -10.2639   -1.6812 F       1  UNL1       -0.2320
     30 C          -2.4767  -11.0290   -3.9246 C.3     1  UNL1       -0.0068
     31 C          -2.4308  -12.1719   -2.9496 C.3     1  UNL1       -0.0068
     32 O          -0.7642   -9.0411   -1.7044 O.2     1  UNL1       -0.2723
     33 O           2.4010  -10.8770   -3.9959 O.2     1  UNL1       -0.2735
     34 O           2.4514   -7.7920   -2.0770 O.2     1  UNL1       -0.2738
     35 C           1.5527   -6.5460    3.0265 C.ar    1  UNL1        0.1259
     36 O           1.4291   -5.1791    2.7240 O.3     1  UNL1       -0.4893
     37 C           0.8968   -4.2686    3.7318 C.3     1  UNL1        0.1128
     38 C          -0.5527   -4.3296    4.3940 C.3     1  UNL1        0.0818
     39 O          -1.5224   -5.3758    4.1600 O.3     1  UNL1       -0.3742
     40 C          -1.2992   -6.3450    3.1477 C.3     1  UNL1        0.0712
     41 C          -1.8737   -6.2461    1.7968 C.3     1  UNL1        0.0717
     42 O          -1.2915   -5.0676    1.2758 O.3     1  UNL1       -0.3664
     43 C          -1.7627   -3.8735    1.8564 C.3     1  UNL1        0.1444
     44 C          -3.1856   -3.8746    2.4784 C.2     1  UNL1        0.3308
     45 O          -3.4432   -4.0941    3.7924 O.3     1  UNL1       -0.4790
     46 O          -4.1806   -3.7471    1.7210 O.2     1  UNL1       -0.2484
     47 C           1.1221   -7.0185    4.3094 C.ar    1  UNL1       -0.0113
     48 H          -3.5136   -8.0746    5.7341 H       1  UNL1        0.0293
     49 H          -2.6914   -6.5817    6.2994 H       1  UNL1        0.0293
     50 H          -2.5073   -7.2657    4.7151 H       1  UNL1        0.0293
     51 H          -0.6011  -10.0386    8.8646 H       1  UNL1        0.0907
     52 H           0.1763  -10.1935    3.5373 H       1  UNL1        0.0624
     53 H           0.8998   -9.5109    1.4953 H       1  UNL1        0.0622
     54 H           0.9973   -7.4649   -0.1885 H       1  UNL1        0.0513
     55 H           1.6993   -5.9515    0.3003 H       1  UNL1        0.0513
     56 H           3.8673   -7.3234    0.6983 H       1  UNL1        0.1491
     57 H           4.8014   -9.7602   -0.8045 H       1  UNL1        0.0597
     58 H           6.5060   -8.5222   -1.0461 H       1  UNL1        0.0313
     59 H           5.7309   -7.4786   -2.2680 H       1  UNL1        0.0313
     60 H           7.0495   -9.0683   -3.6228 H       1  UNL1        0.0610
     61 H           6.0965  -11.2070   -2.0096 H       1  UNL1        0.2098
     62 H           4.7175   -9.0211   -4.4370 H       1  UNL1        0.0490
     63 H           5.0013  -10.7859   -4.2525 H       1  UNL1        0.0490
     64 H           1.3854   -9.5424   -1.2824 H       1  UNL1        0.0600
     65 H           4.0689  -11.9009   -1.4827 H       1  UNL1        0.0236
     66 H           3.6152  -12.9688   -0.1973 H       1  UNL1        0.0236
     67 H           2.7481  -13.0324   -1.7716 H       1  UNL1        0.0236
     68 H           2.3274   -9.6387    0.6337 H       1  UNL1        0.0236
     69 H           3.1109  -11.0352    1.4880 H       1  UNL1        0.0236
     70 H           3.8126  -10.0815    0.3591 H       1  UNL1        0.0236
     71 H           0.3195  -11.3163    0.5935 H       1  UNL1        0.0236
     72 H           0.5094  -12.7511   -0.4207 H       1  UNL1        0.0236
     73 H           1.4210  -12.6084    1.0897 H       1  UNL1        0.0236
     74 H           0.2749  -11.9320   -2.5742 H       1  UNL1        0.1496
     75 H          -3.4413  -10.7138   -4.3077 H       1  UNL1        0.0302
     76 H          -1.6860  -10.9357   -4.6608 H       1  UNL1        0.0302
     77 H          -1.6511  -12.9120   -3.0359 H       1  UNL1        0.0302
     78 H          -3.3799  -12.6022   -2.6367 H       1  UNL1        0.0302
     79 H           1.6175   -4.2666    4.5450 H       1  UNL1        0.0720
     80 H           0.9728   -3.2751    3.2594 H       1  UNL1        0.0720
     81 H          -1.0184   -3.3209    4.3239 H       1  UNL1        0.0594
     82 H          -0.5276   -4.3271    5.4891 H       1  UNL1        0.0594
     83 H          -0.3430   -6.1261    2.8598 H       1  UNL1        0.0583
     84 H          -1.3533   -7.3872    3.4401 H       1  UNL1        0.0583
     85 H          -1.4800   -7.0870    1.2051 H       1  UNL1        0.0583
     86 H          -2.9559   -6.2916    1.8516 H       1  UNL1        0.0583
     87 H          -1.5919   -3.3632    0.9164 H       1  UNL1        0.0676
     88 H          -1.1856   -3.0287    2.2919 H       1  UNL1        0.0676
     89 H          -2.7887   -4.5177    4.4064 H       1  UNL1        0.2951
     90 H           0.8411   -6.3037    5.0733 H       1  UNL1        0.0660
@<TRIPOS>BOND
     1     1     2    1
     2     2     3   ar
     3     3     4   ar
     4     4     5   ar
     5     5     6   ar
     6     2     6   ar
     7     3     7    1
     8     7     8   ar
     9     8     9   ar
    10     9    10   ar
    11    10    11    1
    12    11    12    1
    13    12    13   am
    14    14    15    1
    15    15    16    1
    16    16    17    1
    17    16    18    1
    18    18    19    1
    19    14    19    1
    20    19    20   am
    21    22    23    1
    22    22    24    1
    23    22    25    1
    24    21    26    1
    25    26    27   am
    26    27    28    1
    27    28    29    1
    28    28    30    1
    29    30    31    1
    30    28    31    1
    31    27    32    2
    32    20    33    2
    33    13    34    2
    34    10    35   ar
    35    35    36    1
    36    36    37    1
    37    37    38    1
    38    38    39    1
    39    39    40    1
    40    40    41    1
    41    41    42    1
    42    42    43    1
    43    43    44    1
    44    44    45    1
    45    44    46    2
    46    35    47   ar
    47     7    47   ar
    48     1    48    1
    49     1    49    1
    50     1    50    1
    51     5    51    1
    52     8    52    1
    53     9    53    1
    54    11    54    1
    55    11    55    1
    56    12    56    1
    57    15    58    1
    58    15    59    1
    59    16    60    1
    60    17    61    1
    61    18    62    1
    62    18    63    1
    63    21    64    1
    64    23    65    1
    65    23    66    1
    66    23    67    1
    67    24    68    1
    68    24    69    1
    69    24    70    1
    70    25    71    1
    71    25    72    1
    72    25    73    1
    73    26    74    1
    74    30    75    1
    75    30    76    1
    76    31    77    1
    77    31    78    1
    78    37    79    1
    79    37    80    1
    80    38    81    1
    81    38    82    1
    82    40    83    1
    83    40    84    1
    84    41    85    1
    85    41    86    1
    86    43    87    1
    87    43    88    1
    88    45    89    1
    89    47    90    1
    90    21    22    1
    91    21    20    1
    92    14    57    1
    93    14    13    1
