@<TRIPOS>MOLECULE
*****
 91 94 0 0 0
SMALL
GASTEIGER

@<TRIPOS>ATOM
      1 C          -2.5821   -7.5301    5.7700 C.3     1  UNL1       -0.0212
      2 C          -1.4498   -8.3444    6.2999 C.ar    1  UNL1        0.0531
      3 C          -0.1950   -8.6772    5.7842 C.ar    1  UNL1        0.0418
      4 S           0.6524   -9.6956    6.8803 S.2     1  UNL1       -0.0752
      5 C          -0.6499   -9.5688    7.9599 C.ar    1  UNL1        0.0655
      6 N          -1.6791   -8.8611    7.5679 N.ar    1  UNL1       -0.2520
      7 C           0.5414   -8.3406    4.5810 C.ar    1  UNL1       -0.0061
      8 C           0.5770   -9.2234    3.5209 C.ar    1  UNL1       -0.0529
      9 C           1.1102   -8.7825    2.3201 C.ar    1  UNL1       -0.0530
     10 C           1.7465   -7.5224    2.1287 C.ar    1  UNL1        0.0113
     11 C           2.1495   -7.1529    0.6987 C.3     1  UNL1        0.0403
     12 N           3.4091   -7.6513    0.1787 N.am    1  UNL1       -0.3095
     13 C           3.4634   -8.0122   -1.1598 C.2     1  UNL1        0.2339
     14 C           4.4974   -9.0688   -1.5645 C.3     1  UNL1        0.1047
     15 C           5.8508   -8.5046   -1.9553 C.3     1  UNL1        0.0018
     16 C           6.2897   -9.4955   -3.0280 C.3     1  UNL1        0.0731
     17 O           6.8395  -10.6640   -2.4022 O.3     1  UNL1       -0.3902
     18 C           4.9845   -9.8254   -3.7692 C.3     1  UNL1        0.0416
     19 N           3.9745   -9.8131   -2.7226 N.am    1  UNL1       -0.2858
     20 C           2.7082  -10.3872   -2.9094 C.2     1  UNL1        0.2371
     21 C           1.6718  -10.5167   -1.7086 C.3     1  UNL1        0.1045
     22 C           2.2069  -11.4087   -0.5214 C.3     1  UNL1       -0.0108
     23 C           3.2081  -12.4418   -1.0185 C.3     1  UNL1       -0.0579
     24 C           2.8985  -10.5998    0.5673 C.3     1  UNL1       -0.0579
     25 C           1.0381  -12.0894    0.2200 C.3     1  UNL1       -0.0579
     26 N           0.3437  -11.0077   -2.1917 N.am    1  UNL1       -0.3009
     27 C          -0.7890  -10.2217   -2.1351 C.2     1  UNL1        0.2508
     28 C          -2.1351  -10.7857   -2.4734 C.3     1  UNL1        0.1868
     29 F          -3.1891  -10.2748   -1.7058 F       1  UNL1       -0.2320
     30 C          -2.4718  -11.0383   -3.9264 C.3     1  UNL1       -0.0068
     31 C          -2.4185  -12.1836   -2.9572 C.3     1  UNL1       -0.0068
     32 O          -0.7465   -9.0361   -1.7651 O.2     1  UNL1       -0.2723
     33 O           2.4206  -10.8843   -4.0074 O.2     1  UNL1       -0.2735
     34 O           2.6273   -7.6235   -1.9781 O.2     1  UNL1       -0.2738
     35 C           1.6842   -6.6272    3.2351 C.ar    1  UNL1        0.1259
     36 O           1.7870   -5.2610    3.0222 O.3     1  UNL1       -0.4893
     37 C           1.0125   -4.2734    3.8016 C.3     1  UNL1        0.1128
     38 C          -0.5587   -4.1885    4.0104 C.3     1  UNL1        0.0817
     39 O          -1.3370   -5.3606    4.1726 O.3     1  UNL1       -0.3764
     40 C          -1.2505   -6.2387    3.0736 C.3     1  UNL1        0.0478
     41 C          -2.0222   -6.0169    1.8274 C.3     1  UNL1       -0.0291
     42 C          -1.6105   -4.7358    1.0776 C.3     1  UNL1       -0.0446
     43 C          -0.1455   -4.5862    0.6529 C.3     1  UNL1        0.0028
     44 C           0.0869   -5.5273   -0.4766 C.2     1  UNL1        0.1203
     45 H           0.9138   -5.2964   -1.1611 H       1  UNL1        0.1026
     46 O          -0.4838   -6.6100   -0.5266 O.2     1  UNL1       -0.3010
     47 C           1.1270   -7.0723    4.4481 C.ar    1  UNL1       -0.0113
     48 H          -3.5224   -8.0868    5.8070 H       1  UNL1        0.0293
     49 H          -2.6940   -6.5984    6.3347 H       1  UNL1        0.0293
     50 H          -2.5172   -7.2724    4.7337 H       1  UNL1        0.0293
     51 H          -0.6189  -10.0546    8.9198 H       1  UNL1        0.0907
     52 H           0.1071  -10.2048    3.5630 H       1  UNL1        0.0624
     53 H           0.8670   -9.4460    1.4982 H       1  UNL1        0.0622
     54 H           1.3924   -7.5866    0.0344 H       1  UNL1        0.0513
     55 H           2.1969   -6.0774    0.5523 H       1  UNL1        0.0513
     56 H           4.2447   -7.4679    0.7100 H       1  UNL1        0.1491
     57 H           4.8020   -9.8059   -0.8431 H       1  UNL1        0.0597
     58 H           6.5257   -8.5041   -1.0869 H       1  UNL1        0.0313
     59 H           5.7524   -7.4829   -2.3246 H       1  UNL1        0.0313
     60 H           7.0647   -9.0780   -3.6716 H       1  UNL1        0.0610
     61 H           6.1110  -11.2047   -2.0473 H       1  UNL1        0.2098
     62 H           4.7209   -9.0284   -4.4690 H       1  UNL1        0.0490
     63 H           5.0058  -10.7949   -4.2740 H       1  UNL1        0.0490
     64 H           1.4502   -9.5252   -1.3205 H       1  UNL1        0.0600
     65 H           4.0820  -11.9664   -1.4707 H       1  UNL1        0.0236
     66 H           3.5969  -13.0366   -0.1904 H       1  UNL1        0.0236
     67 H           2.7529  -13.0889   -1.7697 H       1  UNL1        0.0236
     68 H           2.3508   -9.6930    0.6413 H       1  UNL1        0.0236
     69 H           3.0046  -11.0990    1.5293 H       1  UNL1        0.0236
     70 H           3.8887  -10.2424    0.4159 H       1  UNL1        0.0236
     71 H           0.3142  -11.3480    0.5819 H       1  UNL1        0.0236
     72 H           0.5047  -12.7954   -0.4181 H       1  UNL1        0.0236
     73 H           1.4026  -12.6387    1.0941 H       1  UNL1        0.0236
     74 H           0.2935  -11.9309   -2.6005 H       1  UNL1        0.1496
     75 H          -3.4411  -10.7093   -4.2836 H       1  UNL1        0.0302
     76 H          -1.6775  -10.9410   -4.6562 H       1  UNL1        0.0302
     77 H          -1.6235  -12.9055   -3.0440 H       1  UNL1        0.0302
     78 H          -3.3672  -12.6107   -2.6417 H       1  UNL1        0.0302
     79 H           1.4956   -4.1634    4.7715 H       1  UNL1        0.0720
     80 H           1.2111   -3.3346    3.2605 H       1  UNL1        0.0720
     81 H          -0.7429   -3.5675    4.8996 H       1  UNL1        0.0594
     82 H          -1.0398   -3.5820    3.2491 H       1  UNL1        0.0594
     83 H          -0.2723   -6.1751    2.7004 H       1  UNL1        0.0560
     84 H          -1.3798   -7.2769    3.3721 H       1  UNL1        0.0560
     85 H          -1.7943   -6.9183    1.2426 H       1  UNL1        0.0287
     86 H          -3.0890   -6.0507    2.0360 H       1  UNL1        0.0287
     87 H          -2.2008   -4.7096    0.1656 H       1  UNL1        0.0270
     88 H          -1.9123   -3.8625    1.6482 H       1  UNL1        0.0270
     89 H           0.1232   -3.5680    0.3577 H       1  UNL1        0.0339
     90 H           0.5789   -4.8258    1.4078 H       1  UNL1        0.0339
     91 H           0.8985   -6.3511    5.2246 H       1  UNL1        0.0660
@<TRIPOS>BOND
     1     1     2    1
     2     2     3   ar
     3     3     4   ar
     4     4     5   ar
     5     5     6   ar
     6     2     6   ar
     7     3     7    1
     8     7     8   ar
     9     8     9   ar
    10     9    10   ar
    11    10    11    1
    12    11    12    1
    13    12    13   am
    14    14    15    1
    15    15    16    1
    16    16    17    1
    17    16    18    1
    18    18    19    1
    19    14    19    1
    20    19    20   am
    21    22    23    1
    22    22    24    1
    23    22    25    1
    24    21    26    1
    25    26    27   am
    26    27    28    1
    27    28    29    1
    28    28    30    1
    29    30    31    1
    30    28    31    1
    31    27    32    2
    32    20    33    2
    33    13    34    2
    34    10    35   ar
    35    35    36    1
    36    36    37    1
    37    37    38    1
    38    38    39    1
    39    39    40    1
    40    40    41    1
    41    41    42    1
    42    42    43    1
    43    43    44    1
    44    44    45    1
    45    44    46    2
    46    35    47   ar
    47     7    47   ar
    48     1    48    1
    49     1    49    1
    50     1    50    1
    51     5    51    1
    52     8    52    1
    53     9    53    1
    54    11    54    1
    55    11    55    1
    56    12    56    1
    57    15    58    1
    58    15    59    1
    59    16    60    1
    60    17    61    1
    61    18    62    1
    62    18    63    1
    63    21    64    1
    64    23    65    1
    65    23    66    1
    66    23    67    1
    67    24    68    1
    68    24    69    1
    69    24    70    1
    70    25    71    1
    71    25    72    1
    72    25    73    1
    73    26    74    1
    74    30    75    1
    75    30    76    1
    76    31    77    1
    77    31    78    1
    78    37    79    1
    79    37    80    1
    80    38    81    1
    81    38    82    1
    82    40    83    1
    83    40    84    1
    84    41    85    1
    85    41    86    1
    86    42    87    1
    87    42    88    1
    88    43    89    1
    89    43    90    1
    90    47    91    1
    91    21    22    1
    92    21    20    1
    93    14    57    1
    94    14    13    1
