@<TRIPOS>MOLECULE
*****
 139 145 0 0 0
SMALL
GASTEIGER

@<TRIPOS>ATOM
      1 C           5.9296    6.6130   -1.2842 C.3     1  UNL1        0.0788
      2 O           4.3404    5.9748   -1.8041 O.3     1  UNL1       -0.4947
      3 C           3.8388    4.3110   -1.4513 C.ar    1  UNL1        0.1285
      4 C           3.0738    3.7005   -2.1565 C.ar    1  UNL1       -0.0116
      5 C           2.5948    2.5739   -1.4824 C.ar    1  UNL1       -0.0090
      6 C           1.5673    2.0638   -2.2006 C.ar    1  UNL1        0.0065
      7 C           1.9641    1.6916   -3.4892 C.ar    1  UNL1       -0.0007
      8 C           0.9872    1.1969   -4.2629 C.ar    1  UNL1        0.0653
      9 C           1.3536    0.8597   -5.5114 C.ar    1  UNL1        0.0405
     10 N           2.6485    0.7227   -5.8697 N.ar    1  UNL1       -0.2625
     11 C           3.5884    1.0632   -4.9774 C.ar    1  UNL1        0.0282
     12 C           3.2842    1.8086   -3.9146 C.ar    1  UNL1       -0.0351
     13 C           0.3551    1.9203   -1.7122 C.ar    1  UNL1        0.0159
     14 N          -0.6161    1.4291   -2.4816 N.ar    1  UNL1       -0.3171
     15 C          -1.9309    1.2990   -1.9518 C.3     1  UNL1        0.0147
     16 C          -0.3726    1.0532   -3.7749 C.ar    1  UNL1        0.2603
     17 O          -1.2309    0.5944   -4.5109 O.2     1  UNL1       -0.2670
     18 C           3.0107    1.6848   -0.4216 C.ar    1  UNL1       -0.0116
     19 C           3.9359    2.0728    0.3830 C.ar    1  UNL1        0.1285
     20 O           4.3742    1.3633    1.7708 O.3     1  UNL1       -0.4947
     21 C           5.5057    1.9262    3.0232 C.3     1  UNL1        0.0788
     22 C           4.0775    3.4425    0.0126 C.ar    1  UNL1        0.0498
     23 C           5.4863    4.4076    1.1713 C.3     1  UNL1        0.0311
     24 N           3.9786    5.7301    1.9765 N.3     1  UNL1       -0.2955
     25 C           2.9100    6.2569    3.0545 C.3     1  UNL1        0.0120
     26 C           1.0642    5.4226    2.4493 C.3     1  UNL1        0.0118
     27 N           1.0078    3.3923    3.0116 N.3     1  UNL1       -0.2977
     28 C           1.0750    3.1787    4.4320 C.3     1  UNL1        0.0224
     29 C           1.9175    3.8393    5.4452 C.3     1  UNL1        0.0605
     30 O           2.3956    5.0620    5.7838 O.3     1  UNL1       -0.3762
     31 C           2.6756    5.5361    4.6820 C.3     1  UNL1        0.0711
     32 C           4.2784    4.7165    3.7712 C.3     1  UNL1        0.0711
     33 O           3.6406    2.8503    3.9350 O.3     1  UNL1       -0.3742
     34 C           4.2592    2.7730    5.2402 C.3     1  UNL1        0.0818
     35 C           5.6494    3.6850    5.4131 C.3     1  UNL1        0.1128
     36 O           5.8890    5.3059    5.3313 O.3     1  UNL1       -0.4893
     37 C           6.4139    5.7210    3.8600 C.ar    1  UNL1        0.1259
     38 C           6.9510    6.9439    3.5745 C.ar    1  UNL1       -0.0113
     39 C           6.7679    7.7726    2.2826 C.ar    1  UNL1       -0.0061
     40 C           7.1329    9.0630    2.2034 C.ar    1  UNL1        0.0418
     41 C           6.3780   10.1736    1.9608 C.ar    1  UNL1        0.0531
     42 C           4.9292   10.3588    1.8244 C.3     1  UNL1       -0.0212
     43 N           7.1844   11.2381    1.8494 N.ar    1  UNL1       -0.2520
     44 C           8.4355   10.8461    1.9718 C.ar    1  UNL1        0.0655
     45 S           8.7676    9.2066    2.1822 S.2     1  UNL1       -0.0752
     46 C           6.0263    7.7022    1.1742 C.ar    1  UNL1       -0.0529
     47 C           5.4058    6.6372    1.2895 C.ar    1  UNL1       -0.0530
     48 C           5.4655    5.4094    2.6901 C.ar    1  UNL1        0.0113
     49 C           3.3417    4.2856    2.6307 C.3     1  UNL1        0.0403
     50 N           2.2404    4.3532    2.2840 N.am    1  UNL1       -0.3095
     51 C           1.0787    3.7171    1.1079 C.2     1  UNL1        0.2339
     52 C          -0.1398    4.4023    1.1929 C.3     1  UNL1        0.1047
     53 C          -1.5080    4.1128    1.0471 C.3     1  UNL1        0.0018
     54 C          -1.7763    5.2353    0.1033 C.3     1  UNL1        0.0731
     55 O          -1.9458    6.4897    0.7761 O.3     1  UNL1       -0.3902
     56 C          -0.6008    5.3418   -0.8482 C.3     1  UNL1        0.0416
     57 N           0.4658    5.1179   -0.0151 N.am    1  UNL1       -0.2858
     58 C           1.7535    5.5266   -0.4950 C.2     1  UNL1        0.2371
     59 C           3.0306    5.5797    0.2928 C.3     1  UNL1        0.1044
     60 C           2.8960    7.1591    1.5507 C.3     1  UNL1       -0.0108
     61 C           1.1978    7.2432    2.6618 C.3     1  UNL1       -0.0579
     62 C           4.3744    7.3897    3.1178 C.3     1  UNL1       -0.0579
     63 C           3.1321    8.2991    0.8178 C.3     1  UNL1       -0.0579
     64 N           4.8586    5.0917   -0.2295 N.am    1  UNL1       -0.3037
     65 C           5.8618    3.4758   -0.4433 C.2     1  UNL1        0.2105
     66 C           7.1388    3.6434   -0.7746 C.3     1  UNL1        0.0122
     67 O           5.9460    2.3539    0.2333 O.2     1  UNL1       -0.2761
     68 O           1.9801    6.0985   -1.5462 O.2     1  UNL1       -0.2735
     69 O           1.1595    2.7805    0.3887 O.2     1  UNL1       -0.2738
     70 C           2.7496    2.5729    2.3085 C.3     1  UNL1        0.0118
     71 C           4.7865    3.5174    2.3493 C.3     1  UNL1        0.0120
     72 H           5.8712    7.6508   -1.2668 H       1  UNL1        0.0660
     73 H           6.6132    5.9101   -1.5107 H       1  UNL1        0.0660
     74 H           6.2843    6.3736   -0.2580 H       1  UNL1        0.0660
     75 H           3.1321    4.2536   -3.0209 H       1  UNL1        0.0660
     76 H           0.5902    0.6300   -6.2339 H       1  UNL1        0.0837
     77 H           4.5891    0.6833   -5.0995 H       1  UNL1        0.0830
     78 H           4.0477    2.4168   -3.4352 H       1  UNL1        0.0639
     79 H           0.0452    2.1788   -0.7335 H       1  UNL1        0.0816
     80 H          -2.6064    1.8963   -2.5622 H       1  UNL1        0.0457
     81 H          -2.2192    0.2510   -1.9999 H       1  UNL1        0.0457
     82 H          -1.9681    1.6433   -0.9201 H       1  UNL1        0.0457
     83 H           2.4951    0.9276    0.0960 H       1  UNL1        0.0660
     84 H           6.4636    2.6797    2.6786 H       1  UNL1        0.0660
     85 H           5.0193    2.9513    3.7079 H       1  UNL1        0.0660
     86 H           5.2638    1.6132    3.9675 H       1  UNL1        0.0660
     87 H           6.4935    4.0697    1.6067 H       1  UNL1        0.0478
     88 H           6.1814    5.1458    0.8586 H       1  UNL1        0.0478
     89 H           3.4971    6.7397    4.4586 H       1  UNL1        0.0439
     90 H           2.8217    7.5757    3.1015 H       1  UNL1        0.0439
     91 H           1.4820    5.6705    1.4030 H       1  UNL1        0.0439
     92 H          -0.0835    5.9308    2.6705 H       1  UNL1        0.0439
     93 H           0.3446    3.8645    4.6021 H       1  UNL1        0.0449
     94 H           1.3577    2.1378    4.2781 H       1  UNL1        0.0449
     95 H           2.3906    3.4382    6.2597 H       1  UNL1        0.0572
     96 H           2.4333    3.2342    4.8214 H       1  UNL1        0.0572
     97 H           1.9668    5.4444    3.9673 H       1  UNL1        0.0583
     98 H           2.2750    6.9329    4.6406 H       1  UNL1        0.0583
     99 H           4.3795    4.5553    1.8877 H       1  UNL1        0.0583
    100 H           5.0970    4.6255    4.1350 H       1  UNL1        0.0583
    101 H           3.8309    3.6625    5.4757 H       1  UNL1        0.0594
    102 H           3.8775    1.8258    4.8158 H       1  UNL1        0.0594
    103 H           5.4255    3.5069    6.3932 H       1  UNL1        0.0720
    104 H           6.4637    3.2722    4.8673 H       1  UNL1        0.0720
    105 H           7.5222    7.2368    4.3702 H       1  UNL1        0.0660
    106 H           4.5080   10.9565    2.6160 H       1  UNL1        0.0293
    107 H           4.6325   10.7108    0.8399 H       1  UNL1        0.0293
    108 H           4.4770    9.4310    1.9666 H       1  UNL1        0.0293
    109 H           9.2416   11.5405    1.9382 H       1  UNL1        0.0907
    110 H           5.7369    8.1608    0.2978 H       1  UNL1        0.0624
    111 H           4.4694    6.5903    0.6611 H       1  UNL1        0.0622
    112 H           3.5226    3.6796    1.6019 H       1  UNL1        0.0513
    113 H           2.9740    4.1357    3.7673 H       1  UNL1        0.0513
    114 H           1.7614    4.2733    3.2991 H       1  UNL1        0.1491
    115 H          -0.2784    4.4539    2.2935 H       1  UNL1        0.0597
    116 H          -1.9730    4.1964    2.0448 H       1  UNL1        0.0313
    117 H          -1.4977    3.1049    0.7122 H       1  UNL1        0.0313
    118 H          -2.6833    4.9850   -0.3966 H       1  UNL1        0.0610
    119 H          -1.1139    6.7696    1.1916 H       1  UNL1        0.2098
    120 H          -0.5562    4.5716   -1.6009 H       1  UNL1        0.0490
    121 H          -0.4434    6.3217   -1.2542 H       1  UNL1        0.0490
    122 H           2.8054    4.7339    0.7857 H       1  UNL1        0.0600
    123 H           0.7732    6.1602    3.7393 H       1  UNL1        0.0236
    124 H           1.3599    7.5797    3.6188 H       1  UNL1        0.0236
    125 H           0.6137    7.1385    1.7708 H       1  UNL1        0.0236
    126 H           5.2446    7.1101    2.8972 H       1  UNL1        0.0236
    127 H           4.5042    7.6649    4.1340 H       1  UNL1        0.0236
    128 H           4.6279    6.3135    4.1155 H       1  UNL1        0.0236
    129 H           4.0128    8.0326    0.3190 H       1  UNL1        0.0236
    130 H           2.3336    7.9211    0.2782 H       1  UNL1        0.0236
    131 H           3.2375    8.5968    1.8320 H       1  UNL1        0.0236
    132 H           4.6819    5.9220   -0.6210 H       1  UNL1        0.1495
    133 H           7.5206    3.5044    0.2447 H       1  UNL1        0.0322
    134 H           6.7527    2.8553   -1.4023 H       1  UNL1        0.0322
    135 H           6.9643    4.5950   -1.0118 H       1  UNL1        0.0322
    136 H           2.5390    2.9425    1.2214 H       1  UNL1        0.0439
    137 H           2.4899    1.5755    2.2436 H       1  UNL1        0.0439
    138 H           5.1325    2.8926    1.6255 H       1  UNL1        0.0439
    139 H           5.9166    3.7663    3.3425 H       1  UNL1        0.0439
@<TRIPOS>BOND
     1     1     2    1
     2     2     3    1
     3     3     4   ar
     4     4     5   ar
     5     5     6    1
     6     6     7   ar
     7     7     8   ar
     8     8     9   ar
     9     9    10   ar
    10    10    11   ar
    11    11    12   ar
    12     7    12   ar
    13     6    13   ar
    14    13    14   ar
    15    14    15    1
    16    14    16   ar
    17     8    16   ar
    18    16    17    2
    19     5    18   ar
    20    18    19   ar
    21    19    20    1
    22    20    21    1
    23    19    22   ar
    24     3    22   ar
    25    22    23    1
    26    23    24    1
    27    24    25    1
    28    25    26    1
    29    26    27    1
    30    27    28    1
    31    28    29    1
    32    29    30    1
    33    30    31    1
    34    31    32    1
    35    32    33    1
    36    33    34    1
    37    34    35    1
    38    35    36    1
    39    36    37    1
    40    37    38   ar
    41    38    39   ar
    42    39    40    1
    43    40    41   ar
    44    41    42    1
    45    41    43   ar
    46    43    44   ar
    47    44    45   ar
    48    40    45   ar
    49    39    46   ar
    50    46    47   ar
    51    47    48   ar
    52    37    48   ar
    53    48    49    1
    54    49    50    1
    55    50    51   am
    56    52    53    1
    57    53    54    1
    58    54    55    1
    59    54    56    1
    60    56    57    1
    61    52    57    1
    62    57    58   am
    63    60    61    1
    64    60    62    1
    65    60    63    1
    66    59    64    1
    67    64    65   am
    68    65    66    1
    69    65    67    2
    70    58    68    2
    71    51    69    2
    72    27    70    1
    73    70    71    1
    74    24    71    1
    75     1    72    1
    76     1    73    1
    77     1    74    1
    78     4    75    1
    79     9    76    1
    80    11    77    1
    81    12    78    1
    82    13    79    1
    83    15    80    1
    84    15    81    1
    85    15    82    1
    86    18    83    1
    87    21    84    1
    88    21    85    1
    89    21    86    1
    90    23    87    1
    91    23    88    1
    92    25    89    1
    93    25    90    1
    94    26    91    1
    95    26    92    1
    96    28    93    1
    97    28    94    1
    98    29    95    1
    99    29    96    1
   100    31    97    1
   101    31    98    1
   102    32    99    1
   103    32   100    1
   104    34   101    1
   105    34   102    1
   106    35   103    1
   107    35   104    1
   108    38   105    1
   109    42   106    1
   110    42   107    1
   111    42   108    1
   112    44   109    1
   113    46   110    1
   114    47   111    1
   115    49   112    1
   116    49   113    1
   117    50   114    1
   118    53   116    1
   119    53   117    1
   120    54   118    1
   121    55   119    1
   122    56   120    1
   123    56   121    1
   124    59   122    1
   125    61   123    1
   126    61   124    1
   127    61   125    1
   128    62   126    1
   129    62   127    1
   130    62   128    1
   131    63   129    1
   132    63   130    1
   133    63   131    1
   134    64   132    1
   135    66   133    1
   136    66   134    1
   137    66   135    1
   138    70   136    1
   139    70   137    1
   140    71   138    1
   141    71   139    1
   142    52   115    1
   143    52    51    1
   144    59    60    1
   145    59    58    1
