@<TRIPOS>MOLECULE
*****
 76 78 0 0 0
SMALL
GASTEIGER

@<TRIPOS>ATOM
      1 O           4.8913   -0.7370   -1.3904 O.2     1  UNL1       -0.2738
      2 C           4.5183    0.4068   -1.0985 C.2     1  UNL1        0.2339
      3 N           5.4745    1.3288   -0.6153 N.am    1  UNL1       -0.3095
      4 C           5.4739    2.8788   -0.6057 C.3     1  UNL1        0.0403
      5 C           5.6896    3.7759    0.6896 C.ar    1  UNL1        0.0111
      6 C           6.6128    4.7261    1.0247 C.ar    1  UNL1        0.1221
      7 O           7.4720    5.0947    0.0092 O.3     1  UNL1       -0.5064
      8 C           7.0014    5.0324    2.5345 C.ar    1  UNL1       -0.0116
      9 C           6.4412    4.4054    3.6699 C.ar    1  UNL1       -0.0061
     10 C           5.2658    3.9699    3.2407 C.ar    1  UNL1       -0.0529
     11 C           4.9841    3.6962    1.8541 C.ar    1  UNL1       -0.0530
     12 C           7.0597    3.8940    5.0872 C.ar    1  UNL1        0.0418
     13 C           7.4131    2.6435    5.8636 C.ar    1  UNL1        0.0531
     14 C           7.3887    1.0278    5.7855 C.3     1  UNL1       -0.0212
     15 N           8.1821    2.9105    7.0035 N.ar    1  UNL1       -0.2520
     16 C           8.3742    4.1866    7.1542 C.ar    1  UNL1        0.0655
     17 S           7.6623    5.2325    6.0284 S.2     1  UNL1       -0.0752
     18 C           2.9915    0.7080   -1.1755 C.3     1  UNL1        0.1047
     19 N           2.7448    2.0212   -0.7332 N.am    1  UNL1       -0.2858
     20 C           2.8665    2.3895    0.5566 C.2     1  UNL1        0.2372
     21 C           3.5288    1.2952    1.8076 C.3     1  UNL1        0.1075
     22 N           5.1134    1.1111    2.2393 N.am    1  UNL1       -0.2693
     23 C           5.7919    1.4367    3.3944 C.2     1  UNL1        0.4014
     24 O           7.0753    1.9335    3.3572 O.3     1  UNL1       -0.4447
     25 C           8.4065    2.0908    2.7126 C.3     1  UNL1        0.1068
     26 C           8.5487    0.7010    2.2235 C.3     1  UNL1       -0.0253
     27 C           8.5027    2.9321    1.4861 C.3     1  UNL1       -0.0253
     28 C           9.5004    2.6949    3.6389 C.3     1  UNL1       -0.0253
     29 O           5.2498    1.5157    4.5285 O.2     1  UNL1       -0.2264
     30 C           2.5785    1.6463    3.0296 C.3     1  UNL1       -0.0107
     31 C           1.1608    1.3812    2.4892 C.3     1  UNL1       -0.0579
     32 C           2.8020    0.5774    4.0970 C.3     1  UNL1       -0.0579
     33 C           2.3798    3.1457    3.5564 C.3     1  UNL1       -0.0579
     34 O           2.5983    3.5874    0.7323 O.2     1  UNL1       -0.2735
     35 C           2.3848    2.9370   -1.8322 C.3     1  UNL1        0.0416
     36 C           1.6025    2.0174   -2.7261 C.3     1  UNL1        0.0731
     37 O           1.5331    2.4539   -4.0687 O.3     1  UNL1       -0.3902
     38 C           2.3775    0.6902   -2.5784 C.3     1  UNL1        0.0018
     39 H           6.3851    0.8833   -0.7482 H       1  UNL1        0.1491
     40 H           6.0947    3.1387   -1.4717 H       1  UNL1        0.0513
     41 H           4.5252    3.1664   -0.9737 H       1  UNL1        0.0513
     42 H           7.3495    4.4668   -0.7303 H       1  UNL1        0.2921
     43 H           7.9535    5.5038    2.7225 H       1  UNL1        0.0660
     44 H           4.7059    3.3952    3.9520 H       1  UNL1        0.0624
     45 H           4.1263    3.1392    1.8880 H       1  UNL1        0.0622
     46 H           8.4118    0.6264    5.8897 H       1  UNL1        0.0293
     47 H           6.7904    0.6007    6.6055 H       1  UNL1        0.0293
     48 H           7.0721    0.4492    4.9179 H       1  UNL1        0.0293
     49 H           8.9670    4.5599    7.9736 H       1  UNL1        0.0907
     50 H           2.4507    0.0286   -0.5057 H       1  UNL1        0.0597
     51 H           3.3479    0.2876    1.4156 H       1  UNL1        0.0601
     52 H           5.7579    1.2302    1.4770 H       1  UNL1        0.1528
     53 H           7.6219    0.4615    1.6850 H       1  UNL1        0.0268
     54 H           9.3591    0.6269    1.5123 H       1  UNL1        0.0268
     55 H           8.6067    0.0215    3.0673 H       1  UNL1        0.0268
     56 H           8.7221    3.9792    1.7028 H       1  UNL1        0.0268
     57 H           9.3000    2.7223    0.7858 H       1  UNL1        0.0268
     58 H           7.5906    2.7119    0.9729 H       1  UNL1        0.0268
     59 H           9.2790    3.7231    3.9760 H       1  UNL1        0.0268
     60 H           9.6913    2.1157    4.5396 H       1  UNL1        0.0268
     61 H          10.4388    2.8203    3.0891 H       1  UNL1        0.0268
     62 H           1.1027    0.3922    2.0336 H       1  UNL1        0.0236
     63 H           0.4471    1.4719    3.3062 H       1  UNL1        0.0236
     64 H           0.8628    2.1173    1.7347 H       1  UNL1        0.0236
     65 H           3.7891    0.4216    4.4753 H       1  UNL1        0.0236
     66 H           2.2094    0.7667    4.9845 H       1  UNL1        0.0236
     67 H           2.6508   -0.4128    3.6614 H       1  UNL1        0.0236
     68 H           3.1297    3.7358    4.0561 H       1  UNL1        0.0236
     69 H           2.0619    3.8389    2.7681 H       1  UNL1        0.0236
     70 H           1.6243    3.1807    4.3368 H       1  UNL1        0.0236
     71 H           3.2828    3.2790   -2.3697 H       1  UNL1        0.0490
     72 H           1.8657    3.8476   -1.5126 H       1  UNL1        0.0490
     73 H           0.5886    1.9464   -2.3183 H       1  UNL1        0.0610
     74 H           2.4191    2.4210   -4.4665 H       1  UNL1        0.2098
     75 H           1.6785   -0.1446   -2.6827 H       1  UNL1        0.0313
     76 H           3.1488    0.5856   -3.3450 H       1  UNL1        0.0313
@<TRIPOS>BOND
     1     1     2    2
     2     2     3   am
     3     3     4    1
     4     4     5    1
     5     5     6   ar
     6     6     7    1
     7     6     8   ar
     8     8     9   ar
     9     9    10   ar
    10    10    11   ar
    11     5    11   ar
    12     9    12    1
    13    12    13   ar
    14    13    14    1
    15    13    15   ar
    16    15    16   ar
    17    16    17   ar
    18    12    17   ar
    19    18    19    1
    20    19    20   am
    21    20    21    1
    22    21    22    1
    23    22    23   am
    24    23    24    1
    25    24    25    1
    26    25    26    1
    27    25    27    1
    28    25    28    1
    29    23    29    2
    30    21    30    1
    31    30    31    1
    32    30    32    1
    33    30    33    1
    34    20    34    2
    35    19    35    1
    36    35    36    1
    37    36    37    1
    38    36    38    1
    39    18    38    1
    40     3    39    1
    41     4    40    1
    42     4    41    1
    43     7    42    1
    44     8    43    1
    45    10    44    1
    46    11    45    1
    47    14    46    1
    48    14    47    1
    49    14    48    1
    50    16    49    1
    51    21    51    1
    52    22    52    1
    53    26    53    1
    54    26    54    1
    55    26    55    1
    56    27    56    1
    57    27    57    1
    58    27    58    1
    59    28    59    1
    60    28    60    1
    61    28    61    1
    62    31    62    1
    63    31    63    1
    64    31    64    1
    65    32    65    1
    66    32    66    1
    67    32    67    1
    68    33    68    1
    69    33    69    1
    70    33    70    1
    71    35    71    1
    72    35    72    1
    73    36    73    1
    74    37    74    1
    75    38    75    1
    76    38    76    1
    77    18    50    1
    78    18     2    1
