@<TRIPOS>MOLECULE
*****
 36 38 0 0 0
SMALL
GASTEIGER

@<TRIPOS>ATOM
      1 C         -11.6566   -2.0019   -1.2479 C.2     1  UNL1        0.2439
      2 O         -10.5356   -1.5404   -0.9830 O.2     1  UNL1       -0.2731
      3 N         -12.2171   -1.7980   -2.5575 N.am    1  UNL1       -0.2691
      4 C         -13.6229   -1.5104   -3.0982 C.3     1  UNL1        0.1230
      5 C         -13.5199   -1.7121   -4.5767 C.3     1  UNL1        0.1324
      6 O         -13.5422   -3.1206   -4.8522 O.3     1  UNL1       -0.3826
      7 C         -12.1733   -1.1365   -4.8761 C.3     1  UNL1        0.0602
      8 C         -11.2820   -1.5816   -3.6808 C.3     1  UNL1        0.1543
      9 H         -12.9750   -3.5757   -4.1994 H       1  UNL1        0.2104
     10 C         -10.1799   -0.5448   -3.4440 C.2     1  UNL1        0.2409
     11 O          -8.9943   -0.8298   -3.6453 O.2     1  UNL1       -0.2733
     12 N         -10.5048    0.7393   -3.1160 N.am    1  UNL1       -0.2991
     13 H          -9.6902    1.3131   -2.9482 H       1  UNL1        0.1498
     14 C         -11.7971    1.2943   -2.7804 C.3     1  UNL1        0.1164
     15 C         -12.5461    1.9325   -3.9086 C.ar    1  UNL1       -0.0026
     16 C         -13.9237    2.1859   -3.7761 C.ar    1  UNL1       -0.0026
     17 C         -14.6640    2.6361   -4.8679 C.ar    1  UNL1        0.0003
     18 C         -14.0187    2.9309   -6.0712 C.ar    1  UNL1        0.0072
     19 C         -12.6392    2.7278   -6.1820 C.ar    1  UNL1        0.0003
     20 C         -11.9110    2.2382   -5.1106 C.ar    1  UNL1       -0.0026
     21 C         -14.7595    3.3992   -7.2315 C.ar    1  UNL1        0.0445
     22 C         -15.4303    2.6562   -8.1882 C.ar    1  UNL1        0.0660
     23 C         -15.5720    1.1763   -8.2137 C.3     1  UNL1        0.0526
     24 N         -16.0194    3.4007   -9.1979 N.ar    1  UNL1       -0.2406
     25 C         -15.7738    4.6772   -9.0010 C.ar    1  UNL1        0.1341
     26 S         -14.8442    5.0671   -7.6161 S.2     1  UNL1       -0.0649
     27 C         -12.3151   -2.9925   -0.1198 C.3     1  UNL1        0.1486
     28 C         -11.8527   -5.9224   -0.4794 C.3     1  UNL1        0.0946
     29 C         -11.1778   -5.1356    0.6116 C.2     1  UNL1        0.2233
     30 O         -10.5064   -5.7064    1.4938 O.2     1  UNL1       -0.2751
     31 N         -11.3156   -3.7774    0.6296 N.am    1  UNL1       -0.2983
     32 H         -10.8355   -3.3168    1.3983 H       1  UNL1        0.1498
     33 C         -13.2756   -2.3102    0.9041 C.3     1  UNL1        0.0250
     34 C         -14.6451   -2.4981    0.3512 C.3     1  UNL1        0.0021
     35 C         -13.5320   -2.9426    2.2473 C.3     1  UNL1        0.0021
     36 C         -12.8709   -0.8262    1.0092 C.3     1  UNL1        0.0021
@<TRIPOS>BOND
     1    28    29    1
     2    29    30    2
     3    29    31   am
     4     1     2    2
     5     1     3   am
     6     3     4    1
     7     4     5    1
     8     5     6    1
     9     5     7    1
    10     7     8    1
    11     3     8    1
    12     8    10    1
    13    10    11    2
    14    10    12   am
    15    12    14    1
    16    14    15    1
    17    15    16   ar
    18    16    17   ar
    19    17    18   ar
    20    18    21    1
    21    21    22   ar
    22    22    23    1
    23    22    24   ar
    24    24    25   ar
    25    25    26   ar
    26    21    26   ar
    27    18    19   ar
    28    19    20   ar
    29    15    20   ar
    30    27    33    1
    31    33    34    1
    32    33    35    1
    33    33    36    1
    34    31    32    1
    35     6     9    1
    36    12    13    1
    37    27     1    1
    38    27    31    1
